
ParaSurf1060615224906 1   0.00000     0.00000     0

 31 33  0  0  0  0              1 V2000
   -0.8721   -0.8165    0.6822 C
    0.4642   -0.8828    0.0453 C
   -1.5027    0.5302    0.6489 C
   -1.5112   -1.7883    1.2419 N
    1.5361   -1.6162    0.6101 C
    0.6589   -0.1802   -1.1518 C
   -2.5540    0.8249   -0.2311 C
   -1.0473    1.5144    1.5334 C
   -0.9193   -3.1123    1.2973 C
    1.4262   -2.3266    1.8132 N
    2.7959   -1.5866   -0.0430 C
    1.8991   -0.1811   -1.7839 C
   -3.1343    2.0988   -0.2311 C
   -3.1377   -0.3459   -1.3145 Cl
   -1.6281    2.7808    1.5325 C
    0.3460   -3.1143    2.1876 C
   -1.8278   -4.0713    1.7933 O
    2.9744   -0.8800   -1.2209 C
    2.1122    0.6690   -3.2374 Cl
   -2.6692    3.0718    0.6508 C
    0.3965   -3.7731    3.2374 O
   -0.6524   -3.5057    0.2659 H
   -0.1884    0.3764   -1.5886 H
   -0.2297    1.2813    2.2326 H
    2.2735   -2.4546    2.3282 H
    3.6507   -2.1340    0.3861 H
   -3.9593    2.3278   -0.9229 H
   -1.2661    3.5494    2.2315 H
   -2.0384   -3.8579    2.7143 H
    3.9593   -0.8742   -1.7144 H
   -3.1296    4.0713    0.6517 H
  1  2  1
  1  3  1
  1  4  2
  2  5  4
  2  6  2
  3  7  4
  3  8  2
  4  9  1
  5 10  1
  5 11  2
  6 12  4
  7 13  4
  7 14  1
  8 15  4
  9 16  1
 10 16  1
  9 17  1
 11 18  4
 12 18  2
 12 19  1
 13 20  4
 15 20  4
 16 21  2
  9 22  1
  6 23  1
  8 24  1
 10 25  1
 11 26  1
 13 27  1
 15 28  1
 17 29  1
 18 30  1
 20 31  1
M  END
> <BOND ORDER QUALITY>
   2  5 Aromatic system(s)
   2  6 Aromatic system(s)
   3  7 Aromatic system(s)
   3  8 Aromatic system(s)
   5 11 Aromatic system(s)
   6 12 Aromatic system(s)
   7 13 Aromatic system(s)
   8 15 Aromatic system(s)
  11 18 Aromatic system(s)
  12 18 Aromatic system(s)
  13 20 Aromatic system(s)
  15 20 Aromatic system(s)

> <CALCULATION>
  106
EF-optimized geometry. Number of -ve roots wrong

> <HAMILTONIAN>
AM1

> <VAMPBASICS>
    -7.665438    -9.419047    -0.764288     2.877859     3.477216    -1.275432

> <ORBITALS>
2200      -9.777499    -9.419047    -0.764288    -0.497967

> <POINT-GROUP>
C1

> <DIPOL_PHS>
 POINT-CHARGES (XYZS)     1.507838     3.392348    -1.450524     3.985677
 HYBRID        (XYZS)     1.370021     0.084868     0.175091     1.383769
 SUM           (XYZS)     2.877859     3.477216    -1.275432     4.690398

> <DIPOL>
       2.964        3.761       -1.796

> <QUADPOL>
      11.171      -15.219       -2.318        4.291       15.737       -8.853

> <OCTUPOL>
     106.002      -59.844       16.287      -53.305      209.009      -30.597
     -26.049       29.845      -60.457        5.349

> <ENERGY>
       -24115.741941         20256.565728         -3859.176213

> <MOLAREA>
          299.841836

> <TOTAL CHARGE>
  0

> <DENSITY MATRIX ELEMENTS>
  1.2079804624  0.0125231392  0.8811483769  0.0087119240 -0.0140473609
  0.9186767169 -0.0078053419  0.0187336632  0.0017930407  0.8999067925
  1.1960955621 -0.0209550607  0.9387749244  0.0063997246  0.0606201554
  1.0130507159  0.0056040631  0.0200573125  0.0675005156  0.9783829483
  1.1864745527  0.0111272756  0.9649554468  0.0066641767  0.0370877717
  0.9170712250  0.0009791764 -0.0597236779 -0.0146637927  0.9803306118
  1.7184391270 -0.3481336666  1.3062404120  0.0136117426 -0.0471703590
  0.9966865274  0.1659958610 -0.0876535506  0.0594766518  1.1539862407
  1.1882051659  0.0079385806  0.9358706279  0.0133459453  0.0172346212
  0.9229814225 -0.0414479340  0.0203913989  0.0623853552  0.8618329429
  1.2186703593 -0.0641202794  0.9597500459  0.0457778304 -0.0329521373
  0.9600453156 -0.0357382209  0.0450470605  0.0055691507  0.9276246807
  1.2094873264 -0.0052666876  0.9596828644  0.0072668370 -0.0001427600
  0.9167038063 -0.0047462165 -0.0637704260 -0.0484589807  0.9546779743
  1.2174511751  0.0559915386  0.9902618008 -0.0031841161 -0.0072283375
  0.9190717299  0.0512408261  0.0074432124 -0.0333798643  0.9677233216
  1.2322073287  0.0380028036  0.8461833870 -0.0007802492 -0.0112796093
  0.8647726273 -0.0647448914 -0.0316250273  0.0409094763  0.9746966409
  1.4626502270 -0.0186534566  1.1674427626  0.0494619905 -0.1726367567
  1.4631271790  0.0787949315 -0.0836776990  0.2867485313  1.2329682798
  1.2196694098  0.0579840999  0.9596208564 -0.0403177016  0.0045623883
  1.0273965224  0.0215813827  0.0587318118  0.0336745762  0.9618767064
  1.2080155205  0.0021364185  0.9472093588 -0.0017297577  0.0210493360
  1.0091315019  0.0023703170  0.0238204466  0.0840705374  0.9241651952
  1.2199210933 -0.0575143600  1.0000162561  0.0277466226  0.0161356071
  0.9105803936 -0.0458335657  0.0017342620 -0.0274949785  0.9966963980
  1.9820361396 -0.0439685903  1.8652624980 -0.0876083201 -0.2219045889
  1.5543812233 -0.0821397975 -0.1905207364 -0.3973114598  1.5962862999
  1.2186352519  0.0220196926  0.9626878301  0.0511373742  0.0358105250
  0.9611596412  0.0428783739 -0.0192599002  0.0178831723  0.9875117610
  1.2533531745 -0.0736274667  0.8432407362 -0.0149877016 -0.0046071808
  0.7682015761 -0.0466753716  0.0634098150 -0.0495218248  0.8734639806
  1.8714605469 -0.0991691299  1.6288547149 -0.2259824466 -0.3317755379
  1.4565135460 -0.1507585850  0.2177977155 -0.0415367756  1.3263954963
  1.2179734735  0.0731110999  0.9800294045 -0.0006875698  0.0170466360
  0.9424264473 -0.0334434097 -0.0344445247  0.0260163960  0.9413821422
  1.9819082323  0.0162458243  1.9703448860  0.0643081003 -0.0634734565
  1.7405312043 -0.1100443466  0.0963318489  0.3835875465  1.3063306675
  1.2191171933 -0.0268222788  0.9590036010  0.0648021806 -0.0185732356
  0.9868257502  0.0019899223 -0.0275927747 -0.0155044554  0.9453373899
  1.9156953730  0.0082761634  1.8101663493 -0.1445119169  0.1227870847
  1.3849395479  0.2282319735  0.0653019520  0.1785115248  1.2131041504

> <CHARGE ON HYDROGENS>
  0.1452410741  0.1645281492  0.1456504168  0.2437861345  0.1461612759
  0.1514636762  0.1410055878  0.2274721744  0.1549253615  0.1409152258

> <CHARGE_COULSON>
   0.0922876513
  -0.1263041508
  -0.0488318362
  -0.1753523071
   0.0911098409
  -0.0660904015
  -0.0405519714
  -0.0945080274
   0.0821400160
  -0.3261884485
  -0.1685634951
  -0.0885215765
  -0.1272141410
   0.0020338393
  -0.1299944842
   0.2617405326
  -0.2832243042
  -0.0818114676
   0.0008850100
  -0.1102839344
  -0.3239054205
   0.1452410741
   0.1645281492
   0.1456504168
   0.2437861345
   0.1461612759
   0.1514636762
   0.1410055878
   0.2274721744
   0.1549253615
   0.1409152258

> <NAO-PC>
 199
 -0.8720740336 -0.8164670466  0.6821730028  4.0000000000
 -1.3612512459 -0.9599062970  0.9628600115 -0.4681471256
 -0.3712548925 -0.6696140854  0.3948059239 -0.3974175898
 -1.0902529997 -1.0437037163  0.1855311738 -0.4581398461
 -0.6533896904 -0.5887040191  1.1799652241 -0.4508611079
 -0.6403047081 -1.3375827942  0.8188430321 -0.4748516125
 -1.1056883133 -0.2912030591  0.5444150386 -0.4494430946
 -0.8621219331 -0.8086180801  0.6757784097 -1.2090015124
 -1.2456737529 -1.1111155670  0.9222246586  0.0001541283
  0.4642069662 -0.8828171947  0.0452896007  4.0000000000
  0.9046767934 -1.2192524514  0.2167677912 -0.4955431206
  0.0104931403 -0.5362660396 -0.1313445774 -0.4030710781
  0.7716886366 -0.7130161647 -0.4177246009 -0.5127159847
  0.1485683223 -1.0571227616  0.5205867932 -0.4272168897
  0.6853495107 -0.4346379883  0.3565217380 -0.5452375268
  0.2430271502 -1.3310719376 -0.2659949919 -0.5446024046
  0.4321521215 -0.8745569341  0.0558888809 -1.1979307177
  1.6502158881 -1.1884416012 -0.3468770464  0.0000182560
 -1.5026611986  0.5302244883  0.6488755742  4.0000000000
 -1.8632677446  0.9611605055  0.4766111499 -0.4516744801
 -1.1407232542  0.0976974088  0.8217760173 -0.4402922687
 -1.7540629911  0.1671594447  0.2674567304 -0.4925493776
 -1.2466776768  0.8999062935  1.0372456726 -0.4344024327
 -1.8859593975  0.3713469397  1.0546818628 -0.5736748223
 -1.1081110831  0.6937659694  0.2311566325 -0.4688903525
 -1.4801403384  0.5429307010  0.6432645770 -1.1874149206
 -2.3409724632  0.0572513803  0.8577380305  0.0000714545
 -1.5112146676 -1.7883173350  1.2419095673  5.0000000000
 -1.4258468917 -1.3789219261  1.0937004818 -0.6034796897
 -1.6029529532 -2.2282635861  1.4011786506 -0.3639970783
 -1.1393877326 -1.8235117743  1.4303012469 -0.8872179066
 -1.9628078069 -1.7455728057  1.0131031468 -0.2263671620
 -1.4150757238 -1.9667644427  0.8764121209 -0.9038200949
 -1.6281985660 -1.5711791236  1.6866545836 -0.2275519584
 -1.7885885711 -1.7598082811  1.3738169051 -1.9623428685
 -0.5990267514 -1.8820738645  0.8081114408 -0.0005666345
  1.5361360679 -1.6161853826  0.6100662888  4.0000000000
  1.4895102504 -1.9068593600  1.1009194698 -0.4892136350
  1.5854992620 -1.3084460932  0.0903953830 -0.3281387172
  1.0424238370 -1.3283673772  0.7310390671 -0.4857098392
  2.0377728524 -1.9086231423  0.4871517816 -0.4348111585
  1.8454156212 -1.2013946066  0.8829485542 -0.5109972221
  1.2227623833 -2.0364670095  0.3335717062 -0.4663833603
  1.5503446286 -1.6017416845  0.5362591152 -1.1933889998
  1.0287345797 -2.1319838568  3.2457920696 -0.0002423980
  0.6589255011 -0.1802486427 -1.1517827531  4.0000000000
  0.3070060995 -0.3763711766 -0.7241014170 -0.4503220521
  1.0123442862  0.0167094885 -1.5812862632 -0.4372531742
  0.5349742167 -0.6558658493 -1.4719891520 -0.4895609632
  0.7838087552  0.2989446531 -0.8291687739 -0.4647789002
  1.0778549415 -0.4370544803 -0.9271219522 -0.7555260476
  0.1592577101  0.1260502067 -1.4197414003 -0.2193008727
  0.4537269508 -0.0365500834 -1.2640144035 -1.2485094940
  3.2153573146 -1.9704931052  0.2464364884 -0.0008332169
 -2.5540187202  0.8248510511 -0.2310748449  4.0000000000
 -2.2939775360  1.1878534225  0.1521247533 -0.4347207925
 -2.8144043293  0.4613678823 -0.6147819916 -0.4307575607
 -2.1831207533  0.4000643534 -0.0804576506 -0.4951764866
 -2.9314590929  1.2571307178 -0.3843488313 -0.4384771093
 -2.9258540946  0.6490531674  0.1877559883 -0.5266784511
 -2.1799079957  1.0017246843 -0.6524686046 -0.5048711490
 -2.5573681222  0.8307370868 -0.2352526294 -1.2100620560
 -2.4277665192  0.6029831029 -0.0735976343  0.0001961861
 -1.0472710023  1.5143690339  1.5334413307  4.0000000000
 -1.0945626270  1.0120241804  1.2538812411 -0.5145088359
 -0.9979861984  2.0378859939  1.8247839157 -0.3856130415
 -1.1731218242  1.7962098052  1.0709597117 -0.6766301422
 -0.9058876072  1.1977433300  2.0530026685 -0.2989647736
 -1.5899490266  1.4869172287  1.6906778059 -0.6244477322
 -0.4587793619  1.5441383578  1.3629307386 -0.3537020338
 -0.8637225011  1.4859642360  1.6913935442 -1.2396281156
 -4.0683897906  1.9818981502 -1.0663750506 -0.0010074186
 -0.9193404380 -3.1123387223  1.2972554066  4.0000000000
 -1.4812210603 -3.2281118850  1.2222042647 -0.4695712625
 -0.3373206481 -2.9924159680  1.3749965640 -0.3672575948
 -0.8352247058 -3.6482863425  1.5088627408 -0.4580371278
 -1.0053460229 -2.5643498109  1.0808938289 -0.3923919352
 -1.0163172383 -2.9196122330  1.8058873416 -0.6970311996
 -0.8089506637 -3.3317214366  0.7182739968 -0.2807971818
 -0.8273595720 -3.1379757315  1.0948779142 -1.2517313263
 -2.7217685075 -2.6099639670  5.2629809829 -0.0010366606
  1.4262315088 -2.3266280227  1.8132337486  5.0000000000
  1.5642276862 -2.0565050009  1.4794300492 -0.5827153698
  1.2827998322 -2.6073908569  2.1601855638 -0.4443919244
  1.0211046909 -2.3680108535  1.6153180394 -0.6149230635
  1.8440509777 -2.2839486649  2.0173501706 -0.4953237656
  1.5085798150 -2.5026956621  1.7704944587 -1.4394128731
  0.1941910215  0.3075786801  2.4526705262 -0.0011195306
  1.2898317004 -1.9922472561  2.0412782083 -1.2976806911
  1.5847924886 -2.7153363545  1.5481384130 -0.4506140344
  2.7958623047 -1.5865826651 -0.0429540487  4.0000000000
  2.3862558211 -1.6651374536  0.3596799470 -0.4974875953
  3.2184738918 -1.5055337432 -0.4583717698 -0.4000491824
  2.4702090955 -1.2444474352 -0.3221083573 -0.7161651236
  3.1719637584 -1.9817194352  0.2794451731 -0.2606343690
  2.5826105798 -2.0410011433 -0.3489118390 -0.5321224828
  3.0097992997 -1.1307039435  0.2639869164 -0.5204315591
  2.9754848218 -1.7201616938  0.0403682045 -1.2406474919
 -0.2954406513  0.7123119996 -1.4769297661 -0.0010200608
  1.8990535033 -0.1810942840 -1.7839272043  4.0000000000
  1.9748032406  0.1138326276 -2.2865821169 -0.4413300131
  1.8230161357 -0.4771410662 -1.2793636548 -0.4298964692
  1.3343847503 -0.0193078600 -1.7740463045 -0.4777664207
  2.4662915194 -0.3436168421 -1.7938530626 -0.4629744159
  1.7554867317 -0.6636085977 -2.0886595915 -0.5363770982
  2.0427858253  0.3019764292 -1.4788434224 -0.5321172167
  1.8996405914 -0.1814059591 -1.7833955991 -1.2082994595
  1.8768237177 -0.1692928709 -1.8040561565  0.0002439670
 -3.1343018220  2.0987621024 -0.2311276119  4.0000000000
 -3.0173412070  1.5498182394 -0.3632024713 -0.5146175154
 -3.2562948863  2.6713253020 -0.0933699847 -0.3834120317
 -2.7394249307  2.1065824677  0.1476926425 -0.7241661572
 -3.5927978209  2.0896817883 -0.6709800692 -0.2538362030
 -3.5209928056  1.9196477130  0.1730905303 -0.5117932300
 -2.7457171313  2.2787536527 -0.6373252955 -0.4947598401
 -3.3169726614  2.1684952724 -0.3865113804 -1.2436332577
 -0.2840471103  1.0106995681  2.1933607171 -0.0009901787
 -3.1377152900 -0.3459190677 -1.3145434687  7.0000000000
 -2.9217862271  0.0827883455 -0.9126276662 -0.6208470589
 -3.3831501302 -0.8332075039 -1.7713793359 -0.4316820597
 -3.5855035685 -0.5459560919 -0.8609881485 -0.9832134253
 -2.6887904862 -0.1453743322 -1.7692499515 -0.9760725604
 -3.5759281850  0.0964687246 -1.5520933740 -1.0035033967
 -2.6963438874 -0.7914954590 -1.0752813745 -0.9830149576
 -3.1557364614 -0.3898784315 -1.3535126946 -1.9992095182
 -2.9140058971  0.1997792328 -0.8307912377 -0.0004286261
 -1.6280913928  2.7808196453  1.5324812280  4.0000000000
 -1.2449359784  2.3833883774  1.7290792635 -0.4732920342
 -2.0149130614  3.1820537672  1.3340020279 -0.4430257886
 -1.8270787876  2.4160850986  1.1737556288 -0.7143473073
 -1.3984987996  3.2016520831  1.9463805137 -0.2617323662
 -2.0196173918  2.6016093968  1.9330953696 -0.5032688109
 -1.2356686357  2.9604403603  1.1309495125 -0.4953618390
 -1.5523344900  2.9478292657  1.6756826075 -1.2379351129
 -3.0050774643 -0.2548102783 -1.0704011209 -0.0010257250
  0.3459583527 -3.1143062238  2.1876492121  4.0000000000
  0.2184965353 -2.6082289059  2.4493070732 -0.3936429836
  0.4756184768 -3.6291117485  1.9214785942 -0.3495101004
  0.8217803755 -2.8828498956  1.9669007309 -0.4753191434
 -0.1560783200 -3.3585142667  2.4205594764 -0.3265968260
  0.6241858433 -3.2841020064  2.6424573006 -0.6190260586
  0.0374357330 -2.9260220267  1.6833188074 -0.2997037069
  0.1886959897 -3.1255060185  2.0687890421 -1.2734727762
  4.1920051914 -2.8404013031  5.0945226189 -0.0009822372
 -1.8277964974 -4.0712819490  1.7933441194  6.0000000000
 -1.5981363983 -3.8156811001  1.6693095236 -0.7562606431
 -2.0953063694 -4.3690078086  1.9378205827 -0.3507839765
 -1.8550121542 -3.9297976993  2.1136752303 -0.9485916355
 -1.7931999221 -4.2511368950  1.3861388315 -0.2838271623
 -2.1327933397 -3.8575108048  1.6715897185 -0.9905474019
 -1.5208290322 -4.2864342954  1.9158851908 -0.9590130284
 -1.8813639922 -4.2178708553  1.6839594199 -1.9936747926
 -1.5147330147 -3.2145752157  2.4326190208 -0.0005164252
  2.9743590266 -0.8800258672 -1.2209302509  4.0000000000
  2.7175667662 -0.5407741843 -1.6216969042 -0.4722835287
  3.2349493735 -1.2242952529 -0.8142360576 -0.4264701889
  2.8009149712 -1.3575724114 -1.5135985352 -0.4963716995
  3.1492698863 -0.3984407451 -0.9257868914 -0.4682049362
  2.5163073867 -0.8895814349 -0.9277452539 -0.7376980861
  3.5130466107 -0.8687881262 -1.5657278763 -0.2364019219
  3.2065065743 -0.8784442600 -1.3339159006 -1.2434264531
 -0.3820436578 -0.9028928352  0.4126228134 -0.0009489824
  2.1121547444  0.6690046361 -3.2373722547  7.0000000000
  2.0328914494  0.3557585819 -2.7012563008 -0.6197149266
  2.2022761308  1.0251615269 -3.8469294663 -0.4305281525
  1.9350681188  0.1238714973 -3.5820752073 -0.9813091979
  2.2892512901  1.2141683126 -2.8926499923 -0.9811510369
  2.7509833823  0.4739580144 -3.2571039579 -0.9960764459
  1.4721244003  0.8644181617 -3.2176034341 -0.9907070296
  2.1190727905  0.7000756503 -3.2900116761 -1.9992028786
  2.0262842475  0.2833345542 -2.5839835430 -0.0004306725
 -2.6691572818  3.0717514667  0.6508048596  4.0000000000
 -3.0171302447  2.8749101805  0.2232339167 -0.4765056265
 -2.3170717761  3.2709191355  1.0834290796 -0.4391723400
 -2.3689773762  2.6122321651  0.6231901003 -0.7109809995
 -3.0146495172  3.6006354719  0.6825880827 -0.2650659676
 -3.0186604943  2.8275448734  1.0484460929 -0.5233009238
 -2.3126627636  3.3208430594  0.2452093892 -0.4559287110
 -2.7605277523  3.2847807482  0.6535915269 -1.2382972300
 -0.9961993847 -0.8287321000  0.5997820610 -0.0010265340
  0.3964518782 -3.7731266222  3.2373722547  6.0000000000
  0.3904631647 -3.5820007499  2.9369212938 -0.7550270788
  0.4038301788 -4.0086002619  3.6075381586 -0.2642639307
  0.2571836595 -3.4644774136  3.4366904568 -0.7240176357
  0.5358540545 -4.0820727109  3.0378623347 -0.7205328822
  0.0323716175 -3.8946570206  3.1711436157 -0.9747894304
  0.7673420291 -3.6493230749  3.3048396584 -0.8879988724
  0.4127084323 -3.8474460775  3.3624513882 -1.9956360371
  0.2441390017 -3.0768037798  2.0654656872 -0.0016309619
 -0.6523729241 -3.5056592421  0.2659219538  0.1452410741
 -0.1884200457  0.3763605945 -1.5886408755  0.1645281492
 -0.2296923552  1.2813160652  2.2326437031  0.1456504168
  2.2734973298 -2.4545829777  2.3281818493  0.2437861345
  3.6507390496 -2.1339616763  0.3861276140  0.1461612759
 -3.9593201644  2.3277969232 -0.9229227741  0.1514636762
 -1.2660881783  3.5494231060  2.2315157095  0.1410055878
 -2.0384230907 -3.8578790764  2.7142961555  0.2274721744
  3.9593201644 -0.8741566199 -1.7143728657  0.1549253615
 -3.1295631265  4.0712819490  0.6517493693  0.1409152258

> <MEANPOL>
   34.653

> <M0 MEAN POLARIZABILITY>
   30.854

> <POLARIZABILITY>
   33.123582    -0.919827    35.110414     1.653583    -6.672559    35.725331

> <M0 POLARIZABILITY>
   29.341216    -0.282033    31.405408     0.915962    -5.708027    31.815608

> <M4 POLARIZABILITY>
   31.581821    -1.765591    31.786782     1.788945    -4.665687    32.272739

> <M4 ATOMIC POLARIZABILITY>
    1.269985    -0.019466     1.456350    -0.185288    -0.249281     1.001789
    1.535600    -0.180997     1.178138    -0.066331    -0.393971     1.421682
    1.262531    -0.191346     1.522444     0.318616     0.030605     1.221953
    1.307806     0.034239     1.588879    -0.121414    -0.287250     1.160227
    1.455827    -0.162340     1.100817    -0.054684    -0.397769     1.351485
    1.431228    -0.130238     1.079007    -0.103184    -0.370968     1.368572
    1.264690    -0.114627     1.554113     0.370770     0.127440     1.302682
    1.189931    -0.158247     1.465549     0.288126     0.054700     1.179907
    1.272613     0.023806     1.317208     0.070439    -0.146008     1.175758
    1.394098     0.079143     1.407536    -0.041631    -0.295236     1.490112
    1.436623    -0.116103     1.122212    -0.088508    -0.383798     1.405274
    1.455199    -0.143523     1.193889    -0.078988    -0.503262     1.592783
    1.194950    -0.148240     1.452933     0.287940     0.059658     1.190047
    1.979840     0.080416     2.175875     0.193873     0.102135     2.148760
    1.225170    -0.172648     1.426591     0.309061     0.023280     1.196356
    1.188743     0.080378     1.068289     0.151244    -0.432179     1.359471
    1.126290     0.190902     1.196265    -0.113784    -0.144803     1.194347
    1.411142    -0.160251     1.103230    -0.033890    -0.389909     1.366824
    1.925752    -0.029444     2.069669     0.000555    -0.435325     2.382885
    1.218022    -0.144338     1.405073     0.320023     0.044337     1.208136
    0.984556    -0.023625     1.243845     0.033497    -0.488452     1.551013
    0.242086    -0.019995     0.266094    -0.033389     0.031524     0.401477
    0.346454    -0.088111     0.274040     0.066648    -0.065333     0.261509
    0.339674    -0.039963     0.239829     0.109985    -0.049092     0.313748
    0.317952    -0.010852     0.208588     0.069386    -0.037724     0.250505
    0.355198    -0.089100     0.277986     0.067084    -0.064954     0.265278
    0.339425    -0.041734     0.239462     0.108147    -0.049514     0.308415
    0.246851     0.038316     0.322231     0.052704     0.069204     0.303757
    0.216269    -0.011371     0.209424    -0.042878     0.012466     0.405225
    0.384798    -0.006638     0.220522    -0.075637    -0.023125     0.265806
    0.262518    -0.089592     0.400697     0.010453    -0.013081     0.226957

> <M4 ORBITAL POLARIZABILITY>
    0.282374    -0.026222     0.302178    -0.043014    -0.038001     0.205059
    0.810749    -0.000848     0.111440    -0.080604    -0.028111     0.054248
    0.072456    -0.050976     0.862031    -0.019389    -0.041046     0.025657
    0.104406     0.058580     0.180701    -0.042280    -0.142124     0.716826
    0.302573    -0.039330     0.226852    -0.015362    -0.079770     0.275823
    0.910725    -0.044586     0.060530    -0.038250    -0.045363     0.087666
    0.184523    -0.071422     0.809464    -0.005678    -0.114679     0.176823
    0.137778    -0.025660     0.081292    -0.007041    -0.154159     0.881370
    0.247633    -0.038311     0.300840     0.066593     0.006969     0.239024
    0.818897    -0.043984     0.158529     0.099050     0.012580     0.109655
    0.078325    -0.081646     0.908685     0.036241     0.026156     0.055433
    0.117676    -0.027405     0.154390     0.116731    -0.015100     0.817842
    0.019987     0.003846     0.083015     0.004350    -0.018930     0.029925
    1.082330     0.010733     0.182382    -0.044915    -0.063484     0.047642
    0.072373    -0.072071     1.131778    -0.014352    -0.036499     0.028394
    0.133116     0.091732     0.191704    -0.066497    -0.168338     1.054266
    0.300374    -0.039183     0.217555    -0.010390    -0.072871     0.260166
    0.854084    -0.046676     0.051021    -0.022117    -0.050550     0.084919
    0.183300    -0.058965     0.749997    -0.015727    -0.121850     0.190140
    0.118069    -0.017516     0.082245    -0.006450    -0.152498     0.816260
    0.271772    -0.020254     0.210298    -0.022192    -0.067918     0.266376
    0.854578    -0.035511     0.035450    -0.035785    -0.036204     0.070472
    0.188081    -0.055571     0.761611    -0.033518    -0.114336     0.181908
    0.116796    -0.018902     0.071647    -0.011690    -0.152510     0.849815
    0.254398    -0.030336     0.311453     0.076839     0.019965     0.256305
    0.805538    -0.048274     0.171381     0.097235     0.023039     0.121411
    0.075066    -0.035381     0.878027     0.068367     0.070314     0.105213
    0.129688    -0.000636     0.193251     0.128329     0.014122     0.819754
    0.225658    -0.028599     0.286314     0.049057     0.011370     0.225536
    0.795003    -0.047297     0.152516     0.086888     0.017083     0.098880
    0.063598    -0.062653     0.871394     0.041603     0.035002     0.056664
    0.105672    -0.019698     0.155325     0.110578    -0.008756     0.798827
    0.266333    -0.004520     0.269974     0.020687    -0.025649     0.251747
    0.799939     0.049553     0.127247     0.049819    -0.054366     0.099019
    0.090668    -0.040228     0.859773    -0.025447    -0.037558     0.038235
    0.115674     0.019002     0.060214     0.025380    -0.028435     0.786758
    0.074779     0.036567     0.050815    -0.004346    -0.064444     0.082216
    1.166221     0.019439     0.054633    -0.004225    -0.040566     0.054113
    0.097370     0.001574     1.225830    -0.034785    -0.049044     0.124275
    0.055728     0.021563     0.076258     0.001726    -0.141183     1.229509
    0.271330    -0.019972     0.211649    -0.020581    -0.071208     0.267867
    0.877797    -0.027588     0.037056    -0.038484    -0.039005     0.074058
    0.168741    -0.050709     0.799433    -0.022191    -0.119021     0.186857
    0.118755    -0.017835     0.074075    -0.007252    -0.154565     0.876492
    0.297942    -0.035252     0.228016    -0.013202    -0.094117     0.301091
    0.871235    -0.041322     0.045710    -0.020507    -0.050863     0.088401
    0.177198    -0.057613     0.799094    -0.027650    -0.138645     0.245913
    0.108824    -0.009337     0.121069    -0.017629    -0.219636     0.957378
    0.225696    -0.026060     0.281444     0.049929     0.013960     0.226853
    0.800384    -0.040269     0.150489     0.087126     0.019643     0.098516
    0.063506    -0.063334     0.871793     0.040646     0.033892     0.054593
    0.105364    -0.018578     0.149206     0.110240    -0.007837     0.810085
    0.719637     0.014621     0.763068     0.048560     0.004415     0.763598
    1.192933     0.006019     0.047384     0.013882     0.041598     0.045051
    0.031231     0.005042     1.252225     0.054563     0.071716     0.098449
    0.036040     0.054735     0.113197     0.076868    -0.015593     1.241663
    0.236897    -0.037434     0.268831     0.056185    -0.003265     0.226664
    0.818262    -0.043962     0.144984     0.100550     0.016305     0.109469
    0.055980    -0.067724     0.870566     0.033578     0.030350     0.047940
    0.114030    -0.023527     0.142210     0.118747    -0.020110     0.812283
    0.302631     0.016231     0.240490     0.050059    -0.074269     0.291967
    0.736858     0.039643     0.068072     0.041274    -0.070719     0.122998
    0.061232     0.021103     0.654442    -0.003513    -0.111327     0.170802
    0.088022     0.003400     0.105285     0.063425    -0.175864     0.773704
    0.723357     0.030082     0.744924    -0.017515    -0.056540     0.776052
    0.312701     0.075325     0.072129    -0.029633    -0.028545     0.021170
    0.070990     0.079217     0.361216    -0.039125    -0.054972     0.039468
    0.019243     0.006278     0.017996    -0.027511    -0.004746     0.357656
    0.263169    -0.032391     0.217474     0.002073    -0.073494     0.262811
    0.843716    -0.045245     0.042368    -0.010865    -0.043023     0.069738
    0.189440    -0.064473     0.771746    -0.018389    -0.118606     0.180653
    0.114817    -0.018142     0.071642    -0.006710    -0.154786     0.853622
    0.703379    -0.012042     0.743359     0.008725    -0.117586     0.816067
    1.194567    -0.003210     0.009771     0.002419    -0.016876     0.027877
    0.010879    -0.030067     1.206007    -0.014759    -0.060660     0.142049
    0.016928     0.015874     0.110532     0.004171    -0.240203     1.396892
    0.235615    -0.021329     0.259768     0.061602     0.007634     0.236665
    0.813219    -0.047583     0.144940     0.100625     0.009611     0.104651
    0.055650    -0.047557     0.843986     0.039818     0.041608     0.056946
    0.113538    -0.027868     0.156378     0.117977    -0.014516     0.809873
    0.704753    -0.033668     0.759601     0.017919    -0.093528     0.799533
    0.240148     0.008801     0.060724     0.000549    -0.084446     0.122265
    0.020486     0.006572     0.337684    -0.005794    -0.155951     0.195157
    0.019169    -0.005330     0.085836     0.020822    -0.154527     0.434057
    0.242086    -0.019995     0.266094    -0.033389     0.031524     0.401477
    0.346454    -0.088111     0.274040     0.066648    -0.065333     0.261509
    0.339674    -0.039963     0.239829     0.109985    -0.049092     0.313748
    0.317952    -0.010852     0.208588     0.069386    -0.037724     0.250505
    0.355198    -0.089100     0.277986     0.067084    -0.064954     0.265278
    0.339425    -0.041734     0.239462     0.108147    -0.049514     0.308415
    0.246851     0.038316     0.322231     0.052704     0.069204     0.303757
    0.216269    -0.011371     0.209424    -0.042878     0.012466     0.405225
    0.384798    -0.006638     0.220522    -0.075637    -0.023125     0.265806
    0.262518    -0.089592     0.400697     0.010453    -0.013081     0.226957

> <DISPERSION>
  D0        0.0000000000        0.0000000000

> <VALENCES>
  3.9243  3.9389  3.9461  3.0416  3.9223  3.9225  3.9325  3.9310  3.8866  3.2331
  3.9278  3.9319  3.9292  1.1045  3.9353  3.8129  2.0444  3.9281  1.0981  3.9346
  2.0630  0.9789  0.9729  0.9788  0.9406  0.9786  0.9771  0.9801  0.9483  0.9760
  0.9801

> <BONDORDERS>
  1  2  0.9649  1  3  0.9548  1  4  1.8842  1  5  0.0086  1  6  0.0064
  1  7  0.0082  1  8  0.0074  1  9  0.0076  1 10  0.0032  1 11  0.0060
  1 12  0.0074  1 13  0.0064  1 14  0.0015  1 15  0.0071  1 16  0.0160
  1 17  0.0126  1 18  0.0003  1 19  0.0010  1 20  0.0001  1 21  0.0032
  1 22  0.0125  1 23  0.0008  1 24  0.0008  1 25  0.0004  1 26  0.0008
  1 27  0.0008  1 28  0.0007  1 29  0.0002  1 30  0.0001  1 31  0.0002
  2  3  0.0131  2  4  0.0340  2  5  1.3434  2  6  1.3688  2  7  0.0053
  2  8  0.0038  2  9  0.0070  2 10  0.0323  2 11  0.0099  2 12  0.0071
  2 13  0.0003  2 14  0.0002  2 15  0.0002  2 16  0.0088  2 17  0.0003
  2 18  0.0977  2 19  0.0112  2 20  0.0015  2 21  0.0058  2 22  0.0012
  2 23  0.0066  2 25  0.0088  2 26  0.0064  3  4  0.0096  3  5  0.0058
  3  6  0.0016  3  7  1.3682  3  8  1.3914  3  9  0.0183  3 11  0.0005
  3 13  0.0082  3 14  0.0335  3 15  0.0057  3 16  0.0005  3 17  0.0016
  3 18  0.0006  3 20  0.1090  3 21  0.0004  3 22  0.0001  3 23  0.0009
  3 24  0.0074  3 26  0.0001  3 27  0.0068  3 28  0.0078  4  5  0.0187
  4  6  0.0202  4  7  0.0115  4  8  0.0120  4  9  0.9596  4 10  0.0042
  4 11  0.0007  4 12  0.0014  4 13  0.0006  4 14  0.0005  4 15  0.0009
  4 16  0.0183  4 17  0.0320  4 18  0.0065  4 19  0.0004  4 20  0.0017
  4 21  0.0110  4 22  0.0102  4 25  0.0003  4 26  0.0001  4 27  0.0002
  4 28  0.0002  4 29  0.0026  5  6  0.0069  5  7  0.0006  5  8  0.0004
  5  9  0.0009  5 10  1.0287  5 11  1.3262  5 12  0.1013  5 13  0.0001
  5 16  0.0115  5 17  0.0003  5 18  0.0066  5 19  0.0073  5 20  0.0002
  5 21  0.0202  5 22  0.0009  5 23  0.0072  5 25  0.0094  5 26  0.0088
  5 30  0.0082  6  7  0.0007  6  8  0.0003  6  9  0.0002  6 10  0.0065
  6 11  0.1022  6 12  1.4191  6 13  0.0001  6 14  0.0003  6 16  0.0006
  6 18  0.0086  6 19  0.0323  6 20  0.0001  6 21  0.0003  6 22  0.0003
  6 23  0.9388  6 25  0.0013  6 30  0.0067  7  8  0.0067  7  9  0.0010
  7 11  0.0001  7 12  0.0001  7 13  1.3864  7 14  1.0039  7 15  0.1094
  7 16  0.0002  7 17  0.0002  7 18  0.0001  7 20  0.0060  7 22  0.0003
  7 23  0.0004  7 24  0.0072  7 27  0.0080  7 31  0.0079  8  9  0.0013
  8 13  0.1077  8 14  0.0100  8 15  1.4224  8 16  0.0003  8 17  0.0003
  8 20  0.0060  8 22  0.0002  8 24  0.9458  8 28  0.0071  8 31  0.0077
  9 10  0.0279  9 11  0.0005  9 12  0.0003  9 13  0.0002  9 14  0.0001
  9 15  0.0003  9 16  0.8516  9 17  1.0284  9 20  0.0003  9 21  0.0462
  9 22  0.9178  9 25  0.0132  9 29  0.0037 10 11  0.0299 10 12  0.0098
 10 16  1.0382 10 17  0.0082 10 18  0.0080 10 19  0.0008 10 21  0.1444
 10 22  0.0020 10 23  0.0007 10 25  0.8864 10 26  0.0008 10 29  0.0002
 10 30  0.0007 11 12  0.0068 11 16  0.0124 11 18  1.4631 11 19  0.0107
 11 21  0.0059 11 22  0.0002 11 25  0.0012 11 26  0.9445 11 30  0.0066
 12 16  0.0031 12 18  1.3485 12 19  1.0006 12 21  0.0025 12 23  0.0077
 12 25  0.0003 12 26  0.0080 12 30  0.0077 13 14  0.0312 13 15  0.0057
 13 20  1.4232 13 27  0.9443 13 28  0.0077 13 31  0.0070 14 15  0.0077
 14 20  0.0111 14 23  0.0004 14 24  0.0013 14 27  0.0012 14 28  0.0003
 14 31  0.0013 15 20  1.4068 15 24  0.0069 15 27  0.0076 15 28  0.9473
 15 31  0.0070 16 17  0.0273 16 18  0.0015 16 19  0.0003 16 21  1.8038
 16 22  0.0084 16 25  0.0084 16 29  0.0013 16 30  0.0002 17 21  0.0020
 17 22  0.0043 17 25  0.0021 17 29  0.9244 18 19  0.0297 18 21  0.0007
 18 22  0.0002 18 23  0.0070 18 26  0.0059 18 30  0.9429 19 21  0.0002
 19 23  0.0012 19 26  0.0012 19 30  0.0011 20 24  0.0077 20 27  0.0065
 20 28  0.0070 20 31  0.9471 21 22  0.0067 21 25  0.0071 21 29  0.0023
 22 25  0.0001 22 29  0.0134 23 25  0.0002 23 26  0.0001 23 30  0.0008
 24 27  0.0002 24 28  0.0005 24 31  0.0008 25 26  0.0011 26 30  0.0007
 27 28  0.0007 27 31  0.0006 28 31  0.0005

> <ORBITAL VECTORS>
RHF calculation
 53  94  41  53 Nhomo, Nao, Nunocc, Nocc
Nr. of atomic orbitals of each atom
  4   4   4   4   4   4   4   4   4   4   4   4   4   4   4   4   4   4   4   4
  4   1   1   1   1   1   1   1   1   1   1
Orbital information from occ. to unocc.
  -41.790
-0.293 -0.019  0.039 -0.006 -0.321 -0.015  0.019 -0.015
-0.190 -0.014  0.021  0.003 -0.255 -0.083 -0.008  0.034
-0.331  0.031  0.000 -0.006 -0.213 -0.027  0.039 -0.048
-0.122 -0.026  0.001 -0.022 -0.117  0.018  0.019  0.029
-0.245 -0.014 -0.037 -0.029 -0.321  0.039  0.004  0.041
-0.204  0.065 -0.021  0.001 -0.173  0.014  0.024 -0.045
-0.079 -0.022  0.013 -0.015 -0.060 -0.016 -0.016 -0.022
-0.078  0.005  0.025  0.016 -0.298 -0.016 -0.015 -0.002
-0.157 -0.034 -0.044 -0.003 -0.164  0.052  0.003 -0.030
-0.065  0.006  0.018 -0.031 -0.070 -0.011  0.024  0.000
-0.208  0.002 -0.051  0.078 -0.079 -0.062 -0.037 -0.099
-0.055 -0.019 -0.019 -0.058 -0.039 -0.017
  -40.206
 0.146 -0.028  0.066 -0.011  0.069 -0.031  0.031 -0.013
 0.340 -0.029  0.054 -0.008  0.008 -0.005  0.061 -0.021
-0.049 -0.003  0.036 -0.042  0.074 -0.005 -0.003  0.014
 0.329  0.031  0.034  0.042  0.287 -0.064  0.003 -0.063
-0.159 -0.010  0.031 -0.050 -0.197  0.032  0.033 -0.010
-0.007  0.004  0.009 -0.015  0.046 -0.009  0.000  0.006
 0.276  0.067 -0.030  0.051  0.217  0.030  0.053  0.051
 0.263 -0.026 -0.064 -0.054 -0.289 -0.015  0.034 -0.062
-0.182 -0.035 -0.040 -0.010  0.022 -0.009  0.005 -0.003
 0.034 -0.003 -0.005  0.010  0.260  0.035 -0.079 -0.002
-0.309  0.004 -0.063  0.100 -0.044  0.036  0.075 -0.066
-0.007  0.070  0.066 -0.065  0.006  0.065
  -39.765
-0.048  0.060  0.008 -0.033  0.205  0.084  0.003 -0.047
-0.145  0.029 -0.033 -0.002 -0.129 -0.026  0.019  0.002
 0.231  0.028  0.039 -0.064  0.253  0.078 -0.035  0.014
-0.163 -0.008 -0.020 -0.020 -0.136  0.035 -0.009  0.027
-0.202  0.021  0.021 -0.051  0.006  0.039  0.047 -0.054
 0.260 -0.056  0.044 -0.038  0.315 -0.001 -0.026  0.041
-0.147 -0.034  0.014 -0.027 -0.122 -0.012 -0.027 -0.026
-0.138  0.015  0.031  0.028 -0.225  0.031  0.055 -0.071
-0.250 -0.042 -0.055 -0.012  0.283 -0.078  0.006  0.029
 0.264 -0.009 -0.039  0.066 -0.140 -0.018  0.041  0.001
-0.287  0.012 -0.053  0.089 -0.052  0.059 -0.033  0.002
 0.067 -0.038 -0.035 -0.086  0.075 -0.036
  -38.121
-0.234  0.004  0.070 -0.022 -0.151  0.033  0.014 -0.028
-0.017 -0.036  0.066 -0.010 -0.267 -0.071 -0.017  0.041
-0.080  0.031 -0.018  0.013 -0.012  0.034  0.023 -0.052
 0.097 -0.022  0.021 -0.013  0.044 -0.020  0.031 -0.006
-0.130  0.055 -0.050  0.024  0.050 -0.010 -0.042  0.046
-0.017  0.017  0.003 -0.013  0.145  0.022  0.042 -0.078
 0.115  0.020 -0.006  0.017  0.195  0.003  0.023  0.012
 0.092 -0.016 -0.011 -0.020  0.191  0.049 -0.080  0.142
-0.130 -0.010 -0.032  0.003  0.049 -0.012  0.021 -0.027
 0.629 -0.006 -0.029  0.048  0.110  0.010 -0.028 -0.003
 0.402  0.004  0.066 -0.102 -0.043  0.000  0.005  0.029
-0.003  0.033  0.024 -0.035  0.021  0.030
  -38.080
-0.112  0.035  0.053 -0.024  0.026  0.051 -0.019  0.013
-0.006 -0.011  0.033 -0.004 -0.228 -0.045  0.031  0.018
 0.184  0.019 -0.032  0.044 -0.032 -0.009 -0.012  0.025
 0.038 -0.008  0.013 -0.004  0.026 -0.009  0.014 -0.004
-0.262  0.114  0.030 -0.032  0.291 -0.001 -0.010 -0.016
 0.108 -0.033 -0.006  0.026 -0.113 -0.004 -0.043  0.070
 0.052  0.010 -0.001  0.008  0.065  0.000  0.009  0.003
 0.046 -0.007 -0.006 -0.010  0.131  0.119  0.006  0.063
-0.483 -0.051 -0.091 -0.018  0.006  0.005 -0.026  0.038
-0.546  0.007  0.023 -0.040  0.053  0.005 -0.013 -0.001
 0.199  0.024  0.042 -0.050 -0.071 -0.016  0.005  0.101
 0.037  0.015  0.012 -0.149 -0.004  0.014
  -37.668
-0.003 -0.002 -0.023 -0.007  0.014  0.006 -0.006 -0.003
-0.088 -0.017 -0.054 -0.040  0.025  0.005 -0.009 -0.004
 0.020  0.002  0.002 -0.006  0.010  0.002 -0.004  0.003
 0.075 -0.057 -0.114 -0.106 -0.175  0.034 -0.026  0.022
 0.034 -0.016 -0.003  0.001 -0.008  0.003  0.007 -0.009
 0.021 -0.005  0.002 -0.002  0.000 -0.001 -0.008  0.013
-0.084 -0.029 -0.042 -0.047  0.897  0.018  0.035  0.030
-0.195  0.016  0.035  0.031 -0.030 -0.011  0.012 -0.025
 0.065  0.006  0.012  0.002  0.015 -0.003 -0.003  0.006
-0.077  0.000  0.001 -0.002 -0.172 -0.030  0.035 -0.014
-0.069 -0.002 -0.011  0.017  0.011  0.004 -0.048 -0.004
 0.006 -0.012 -0.054  0.019  0.003 -0.047
  -36.656
 0.334 -0.046 -0.079  0.046  0.049 -0.105 -0.014  0.066
 0.091  0.034 -0.093  0.007  0.330  0.096  0.089 -0.066
-0.052 -0.074 -0.024  0.067 -0.094 -0.065  0.011  0.014
-0.040  0.028 -0.056  0.006 -0.036  0.022 -0.056 -0.001
-0.045  0.079  0.169 -0.065  0.104 -0.032 -0.011  0.008
-0.211  0.017 -0.038  0.050 -0.151 -0.014  0.058 -0.085
-0.135 -0.022 -0.013 -0.027 -0.008  0.008 -0.012  0.004
-0.130  0.025  0.006  0.028  0.052  0.041  0.044 -0.013
-0.510 -0.041 -0.061 -0.036 -0.240  0.047  0.010 -0.038
 0.317  0.000  0.015 -0.024 -0.159 -0.014  0.032  0.001
 0.005  0.013  0.010 -0.002 -0.005 -0.012  0.000  0.024
-0.058 -0.038 -0.037 -0.155 -0.066 -0.046
  -35.813
 0.158 -0.012  0.011 -0.013  0.125 -0.044  0.070 -0.081
 0.082  0.027 -0.049 -0.004  0.084  0.016  0.048 -0.025
-0.233 -0.017  0.106 -0.152  0.241  0.032 -0.019  0.015
-0.013  0.027 -0.035  0.007 -0.007  0.013 -0.039 -0.007
-0.053  0.001  0.024 -0.001 -0.512 -0.007 -0.020  0.077
-0.027  0.032  0.044 -0.084  0.189 -0.030 -0.035  0.072
-0.087 -0.012 -0.013 -0.018 -0.025  0.009 -0.006  0.004
-0.083  0.019 -0.001  0.018  0.006 -0.088 -0.162  0.195
-0.135 -0.008 -0.017 -0.003  0.141 -0.045  0.022 -0.012
-0.234 -0.009 -0.021  0.038 -0.109 -0.008  0.019  0.001
 0.451 -0.023  0.043 -0.079 -0.022  0.075  0.004 -0.157
-0.025 -0.026 -0.024 -0.034  0.038 -0.033
  -32.759
 0.047  0.098  0.203 -0.100  0.272 -0.019  0.060 -0.036
 0.261  0.051  0.005  0.002 -0.398 -0.084  0.048  0.026
 0.062 -0.098  0.022  0.033  0.220 -0.057 -0.019  0.072
 0.039  0.083 -0.069  0.036  0.160  0.009 -0.079 -0.039
-0.187 -0.007 -0.147  0.031  0.102  0.005  0.013 -0.009
-0.232 -0.037 -0.038  0.080 -0.078 -0.120  0.046 -0.010
-0.196 -0.008 -0.056 -0.035 -0.027  0.021 -0.002  0.013
-0.088  0.067 -0.054  0.039 -0.031  0.061 -0.003  0.025
 0.249 -0.011 -0.015  0.040 -0.307  0.007  0.022 -0.037
 0.041 -0.019  0.019 -0.020 -0.249  0.008  0.026  0.018
 0.013  0.011  0.000  0.002 -0.057  0.091  0.062  0.031
-0.079 -0.068 -0.030  0.075 -0.107 -0.087
  -31.891
 0.043 -0.098  0.075  0.058 -0.249 -0.009 -0.024  0.074
 0.275  0.048  0.038  0.093  0.019 -0.017  0.049  0.001
 0.016  0.134 -0.034 -0.001 -0.309  0.001  0.027 -0.033
-0.087  0.099 -0.112  0.056  0.365 -0.016 -0.035 -0.024
-0.050 -0.020 -0.017  0.007 -0.007  0.044  0.006 -0.006
 0.293  0.029  0.023 -0.047 -0.064  0.141 -0.036 -0.013
-0.365 -0.013 -0.036 -0.026  0.051  0.004 -0.041 -0.009
 0.099  0.100 -0.103  0.053 -0.037  0.006 -0.020  0.028
 0.045 -0.007 -0.003  0.010  0.255  0.026 -0.051  0.066
 0.030  0.028  0.003 -0.019 -0.267  0.065  0.043  0.083
 0.038  0.001 -0.001  0.001 -0.023 -0.103  0.130  0.017
 0.110 -0.132  0.036  0.015  0.095 -0.098
  -31.628
 0.044 -0.076  0.066 -0.005 -0.121 -0.012 -0.009  0.031
 0.230 -0.115 -0.044 -0.120 -0.036 -0.028  0.046 -0.007
 0.017  0.073 -0.022  0.006 -0.150 -0.013  0.015 -0.013
 0.446  0.013  0.046  0.034 -0.247  0.013 -0.159 -0.055
-0.069 -0.015 -0.032  0.006  0.021  0.031  0.004 -0.004
 0.150  0.013  0.008 -0.017 -0.050  0.067 -0.015 -0.009
 0.267  0.021 -0.146 -0.044 -0.215  0.050  0.107  0.099
-0.458 -0.004  0.021  0.006 -0.031  0.018 -0.012  0.023
 0.066 -0.008 -0.006  0.013  0.112  0.017 -0.029  0.036
 0.021  0.014  0.005 -0.014 -0.191 -0.114 -0.045 -0.130
 0.027  0.004 -0.001  0.002 -0.025 -0.038 -0.092  0.020
 0.058  0.094 -0.169  0.021  0.043 -0.071
  -30.589
-0.089 -0.079  0.032  0.022 -0.256 -0.049  0.073 -0.089
 0.109 -0.025  0.037  0.000  0.023 -0.005 -0.039  0.018
-0.340 -0.028 -0.077  0.111  0.194  0.105  0.052 -0.134
 0.076  0.033 -0.020  0.022  0.082 -0.008 -0.028 -0.018
 0.108  0.047  0.021  0.010  0.281 -0.075 -0.111  0.108
-0.264  0.085  0.023 -0.080  0.408 -0.017 -0.009  0.024
-0.059  0.004 -0.050 -0.018 -0.028  0.014  0.013  0.018
-0.042  0.036 -0.037  0.019  0.185  0.076  0.109 -0.110
-0.075  0.018  0.011 -0.019  0.150 -0.066  0.103 -0.128
-0.175 -0.022 -0.077  0.133 -0.128  0.003  0.000  0.003
-0.231  0.022  0.018 -0.012  0.035  0.076  0.025  0.090
-0.090 -0.024 -0.017 -0.027  0.057 -0.050
  -27.789
-0.283  0.097  0.035 -0.050  0.082  0.105 -0.027 -0.030
 0.034 -0.048  0.151 -0.011 -0.113  0.011 -0.257  0.073
 0.100 -0.021  0.045 -0.101  0.028 -0.016 -0.025  0.044
 0.152  0.005  0.026  0.007  0.149 -0.010  0.005 -0.015
 0.455  0.104  0.016  0.006 -0.222 -0.097 -0.003 -0.054
 0.067 -0.044 -0.005  0.020 -0.115 -0.043  0.005  0.013
-0.012  0.013 -0.110 -0.038 -0.035  0.010  0.044  0.026
-0.032  0.075 -0.082  0.035  0.194 -0.195 -0.014 -0.132
-0.289  0.128  0.082 -0.110 -0.090  0.007 -0.037  0.052
 0.043 -0.002  0.031 -0.049 -0.205  0.008 -0.026 -0.005
-0.125 -0.058 -0.001 -0.045  0.182  0.004  0.049 -0.128
 0.013 -0.009 -0.018 -0.117 -0.044 -0.094
  -25.921
-0.212 -0.142 -0.138  0.096 -0.197  0.160 -0.029 -0.060
-0.070 -0.096  0.108  0.005  0.312 -0.016 -0.047  0.000
 0.211  0.129 -0.053  0.055  0.169  0.106  0.045 -0.132
 0.133 -0.033  0.027 -0.008  0.110 -0.020  0.067  0.023
-0.056 -0.151  0.103 -0.041  0.034  0.184  0.128 -0.111
 0.003 -0.121 -0.066  0.168  0.149 -0.183  0.064 -0.009
-0.003  0.010 -0.115 -0.038 -0.033  0.009  0.050  0.034
 0.049  0.073 -0.071  0.042 -0.271 -0.010 -0.053  0.095
 0.020 -0.048  0.015  0.006 -0.279 -0.076  0.033 -0.012
-0.043 -0.057 -0.024  0.067 -0.175  0.028 -0.029  0.015
 0.205  0.001 -0.044  0.078 -0.041  0.063  0.035  0.057
 0.004 -0.005  0.020  0.016 -0.143 -0.090
  -24.380
 0.005  0.130 -0.082  0.035  0.160  0.061 -0.156  0.209
-0.117  0.038  0.084  0.088 -0.029  0.043  0.003  0.005
 0.174 -0.256  0.052  0.053 -0.311  0.088 -0.046  0.028
-0.001 -0.107  0.111 -0.042  0.175  0.028  0.019  0.041
-0.058  0.002  0.021 -0.010 -0.030 -0.066  0.109 -0.114
-0.330 -0.075  0.051 -0.042  0.181  0.239 -0.049 -0.044
 0.158 -0.027 -0.061 -0.050  0.006 -0.043  0.026 -0.020
-0.044  0.094 -0.104  0.047 -0.078 -0.025  0.006  0.007
 0.034 -0.031 -0.021  0.027  0.157 -0.057  0.146 -0.200
-0.052  0.055 -0.077  0.094 -0.150 -0.040 -0.063 -0.066
 0.089 -0.012 -0.024  0.041 -0.019 -0.184  0.096 -0.087
-0.190  0.085 -0.025  0.023  0.085 -0.083
  -23.741
 0.000  0.000  0.060  0.067 -0.080 -0.012  0.061 -0.036
 0.049  0.216  0.074  0.244  0.023  0.001 -0.007  0.033
-0.040  0.097 -0.019  0.001  0.093  0.004  0.030 -0.031
-0.345 -0.060  0.159  0.015  0.283  0.076 -0.205 -0.018
 0.026 -0.011  0.002  0.009  0.008  0.043 -0.014  0.022
 0.100  0.015 -0.023  0.034 -0.013 -0.090  0.027  0.008
 0.293 -0.074  0.193  0.013  0.100 -0.106 -0.127 -0.161
-0.340  0.046 -0.142 -0.018  0.000 -0.007 -0.008  0.004
-0.016  0.012  0.013 -0.011 -0.074  0.004 -0.035  0.055
 0.004 -0.026  0.013 -0.007  0.045 -0.201 -0.074 -0.227
-0.010 -0.001  0.002 -0.005  0.003  0.043  0.163  0.033
 0.062  0.168 -0.192 -0.008 -0.042  0.027
  -23.668
-0.030  0.067 -0.158 -0.006  0.131 -0.052  0.064 -0.112
-0.273 -0.002  0.073  0.015  0.123  0.028  0.018 -0.017
-0.219 -0.022  0.052 -0.085  0.121 -0.100 -0.045  0.109
 0.103 -0.163  0.121 -0.112  0.158  0.031  0.166  0.099
-0.170 -0.025  0.091  0.009  0.063 -0.064 -0.141  0.196
 0.094  0.115  0.036 -0.114 -0.217 -0.029 -0.034  0.064
 0.153 -0.027 -0.169 -0.103 -0.036 -0.014  0.097  0.025
 0.113  0.153 -0.110  0.098  0.068  0.156  0.075  0.043
 0.084 -0.101 -0.049  0.088  0.085  0.083 -0.097  0.110
 0.066  0.014  0.077 -0.131 -0.266  0.020 -0.074 -0.014
-0.074  0.062  0.056 -0.021 -0.094  0.050  0.093  0.058
 0.055  0.090  0.066  0.070  0.048 -0.150
  -21.998
-0.018  0.133  0.058 -0.141  0.100 -0.157  0.101 -0.055
-0.009  0.038  0.022 -0.039 -0.027 -0.025 -0.227 -0.019
-0.140 -0.013 -0.046  0.164  0.042 -0.137 -0.014  0.100
-0.003  0.012  0.008 -0.017  0.002  0.014  0.008 -0.011
 0.215 -0.225 -0.031 -0.158  0.194  0.282  0.106  0.021
-0.081  0.126  0.020 -0.066 -0.102  0.102 -0.036  0.011
 0.003  0.003  0.002 -0.006  0.000  0.008  0.002 -0.007
 0.000  0.006  0.001 -0.003 -0.361  0.012 -0.035  0.035
-0.065  0.093  0.123 -0.233  0.175  0.103  0.000 -0.042
 0.020  0.044  0.021 -0.054 -0.002  0.001  0.000 -0.003
 0.241  0.029 -0.113  0.176  0.146  0.051  0.002  0.206
 0.005  0.002  0.000 -0.144  0.138 -0.001
  -21.171
 0.304  0.030  0.028 -0.027 -0.104 -0.222  0.019  0.092
-0.158  0.105 -0.201  0.000 -0.237  0.051  0.203 -0.085
-0.008  0.132 -0.113  0.108 -0.004 -0.014  0.091 -0.137
 0.014 -0.162  0.032 -0.151  0.007  0.078  0.130  0.130
 0.078  0.136 -0.231 -0.011 -0.039  0.088  0.052 -0.124
 0.119  0.047 -0.084  0.106  0.121 -0.054  0.085 -0.106
 0.138 -0.081 -0.084 -0.118 -0.037  0.005  0.102  0.044
 0.152  0.105  0.021  0.111  0.026 -0.130 -0.107 -0.066
-0.015  0.147 -0.020 -0.106 -0.085  0.011  0.001 -0.008
-0.051 -0.049 -0.068  0.133 -0.131  0.013 -0.007  0.009
-0.016 -0.065 -0.048 -0.046  0.102  0.060  0.069 -0.007
 0.122  0.128  0.136 -0.091 -0.029 -0.063
  -19.565
-0.032  0.148  0.015 -0.042 -0.034 -0.162  0.042  0.037
-0.002  0.020  0.067 -0.035 -0.013  0.082 -0.142  0.092
-0.007 -0.047 -0.143  0.255  0.110 -0.146  0.101 -0.074
 0.009  0.036  0.018 -0.004 -0.006 -0.003 -0.007 -0.037
-0.028  0.135  0.258  0.152  0.006 -0.065  0.198 -0.263
 0.020  0.183 -0.050 -0.009 -0.046 -0.029  0.063 -0.080
-0.024  0.030 -0.002  0.011  0.003  0.011 -0.003 -0.022
-0.015 -0.014 -0.003 -0.027 -0.002 -0.228  0.051 -0.075
-0.057 -0.159 -0.019  0.383  0.087  0.181 -0.043 -0.019
-0.016 -0.025 -0.018  0.043  0.011  0.014 -0.003  0.003
 0.079 -0.156 -0.054  0.081 -0.131  0.168 -0.017 -0.138
 0.106 -0.029 -0.021  0.260  0.144  0.000
  -18.757
-0.018 -0.133 -0.134  0.065 -0.096  0.061 -0.094 -0.024
-0.009 -0.078  0.048  0.017 -0.027  0.003  0.196 -0.119
 0.031 -0.182 -0.118  0.077  0.129 -0.007  0.033 -0.108
-0.020  0.032  0.032  0.071  0.007 -0.058  0.022 -0.019
-0.033  0.073 -0.164 -0.182  0.017 -0.341 -0.007 -0.252
-0.022  0.090  0.023 -0.152 -0.096 -0.146 -0.020  0.072
-0.002  0.037  0.010  0.050  0.018 -0.015 -0.066 -0.037
-0.019 -0.009 -0.065 -0.027 -0.051  0.136  0.089 -0.193
 0.115  0.035 -0.130 -0.219  0.082  0.097 -0.104  0.081
 0.030 -0.045  0.079 -0.115 -0.010  0.005 -0.062 -0.018
 0.192  0.093 -0.147  0.185  0.135  0.099 -0.036 -0.282
-0.019 -0.037 -0.051 -0.150  0.070 -0.042
  -18.611
 0.050  0.244 -0.092 -0.118  0.096 -0.173 -0.093  0.161
-0.012 -0.023  0.151 -0.045 -0.073  0.092 -0.163 -0.063
-0.064  0.001  0.029 -0.123 -0.131  0.009  0.048 -0.110
-0.002  0.071  0.112  0.079 -0.030 -0.083  0.024 -0.105
 0.002 -0.074  0.102 -0.163 -0.051 -0.109 -0.149  0.139
 0.184  0.097 -0.106  0.086  0.154 -0.035  0.156 -0.246
-0.028  0.112 -0.040  0.076  0.032 -0.034 -0.085 -0.089
-0.016 -0.044 -0.072 -0.089 -0.025  0.212  0.096  0.016
 0.061 -0.116 -0.027 -0.068 -0.154  0.014 -0.031  0.024
-0.077 -0.079 -0.159  0.284 -0.020  0.066 -0.109  0.007
 0.038  0.159  0.033  0.071  0.064 -0.025 -0.098 -0.011
 0.193 -0.102 -0.085 -0.024 -0.072 -0.090
  -18.267
 0.038 -0.032 -0.160  0.031  0.027 -0.028  0.021 -0.068
-0.024 -0.106  0.128 -0.010 -0.010  0.034  0.197 -0.058
-0.006  0.050 -0.021  0.055  0.042 -0.043 -0.035  0.054
-0.068  0.080  0.226  0.194 -0.087 -0.195  0.102 -0.131
-0.028  0.114 -0.143  0.073  0.004  0.247  0.064 -0.012
-0.060 -0.010 -0.002  0.027 -0.035  0.051 -0.043  0.034
 0.031  0.159 -0.067  0.131  0.070 -0.103 -0.212 -0.188
 0.035 -0.046 -0.153 -0.107  0.047 -0.168 -0.185  0.049
-0.011  0.119 -0.050  0.016  0.047  0.022  0.035 -0.060
 0.013  0.040  0.019 -0.053 -0.103  0.118 -0.269 -0.003
-0.124 -0.126  0.012 -0.191 -0.009  0.009 -0.202  0.135
-0.023 -0.123 -0.106 -0.016  0.053 -0.239
  -17.341
 0.106  0.033  0.104 -0.029 -0.060 -0.073  0.042 -0.019
 0.067  0.058 -0.077  0.011 -0.130  0.090 -0.062 -0.007
-0.100  0.103 -0.022 -0.058 -0.065  0.181 -0.077  0.032
-0.062 -0.014  0.112  0.045 -0.099 -0.053  0.010 -0.050
 0.107  0.156  0.110 -0.063  0.048  0.010 -0.079  0.046
 0.031 -0.119  0.060 -0.052  0.062 -0.024 -0.133  0.220
 0.078 -0.014 -0.056 -0.034  0.026 -0.080 -0.071 -0.093
 0.094 -0.003  0.057  0.022 -0.085 -0.029  0.108 -0.220
-0.045 -0.100 -0.029  0.235 -0.058 -0.298  0.016  0.114
 0.043  0.016  0.101 -0.170 -0.091  0.070 -0.081  0.035
 0.199 -0.005 -0.195  0.279  0.087 -0.160 -0.099  0.045
-0.081  0.053  0.082  0.170 -0.243 -0.115
  -17.147
 0.039  0.029  0.205  0.119 -0.020  0.088  0.024  0.186
 0.092  0.112 -0.073  0.095  0.052 -0.070 -0.033  0.193
 0.016 -0.131  0.137  0.099  0.000  0.112  0.104 -0.085
-0.066 -0.076  0.183  0.022 -0.143 -0.065 -0.077 -0.090
-0.015 -0.232 -0.028  0.210  0.034 -0.141  0.174  0.067
 0.011  0.104  0.099 -0.089 -0.001 -0.149  0.081  0.039
 0.081 -0.016 -0.146 -0.074  0.028 -0.128 -0.037 -0.130
 0.121 -0.063  0.148  0.009 -0.006 -0.028  0.151  0.153
-0.044  0.118  0.210 -0.148  0.007  0.060 -0.061  0.140
 0.002 -0.087  0.054  0.005 -0.105  0.135 -0.059  0.108
-0.026 -0.033  0.159  0.048 -0.167 -0.003 -0.129 -0.065
 0.000  0.061  0.120 -0.101 -0.004 -0.128
  -17.013
-0.029 -0.136  0.184 -0.127 -0.037 -0.017  0.082 -0.177
 0.107  0.004 -0.146 -0.124  0.098 -0.167 -0.123  0.010
 0.097  0.138 -0.132 -0.043  0.025 -0.204 -0.023  0.111
-0.126  0.125  0.039  0.094 -0.111 -0.037  0.138 -0.005
-0.021 -0.126  0.062 -0.011 -0.048 -0.171 -0.107 -0.162
-0.013 -0.142 -0.094  0.131 -0.028  0.208 -0.025 -0.097
 0.153 -0.094  0.107 -0.065  0.035 -0.014 -0.176 -0.124
 0.131  0.134  0.028  0.127  0.054  0.142  0.020 -0.007
-0.003 -0.072  0.072 -0.037  0.013  0.009  0.086 -0.183
-0.015  0.107 -0.079  0.055 -0.141 -0.024 -0.103 -0.081
-0.014  0.106  0.033 -0.029 -0.033  0.084 -0.101 -0.178
-0.020  0.166  0.165 -0.005  0.070 -0.128
  -16.506
 0.031 -0.012 -0.030 -0.091  0.011  0.022 -0.097  0.132
 0.009 -0.207 -0.106 -0.245 -0.061  0.003 -0.027 -0.050
-0.021 -0.131  0.110  0.031 -0.046  0.123  0.029 -0.113
-0.024  0.240 -0.199  0.150 -0.001 -0.002  0.286  0.130
 0.023 -0.030  0.000  0.047  0.035  0.031  0.129  0.122
 0.008  0.082  0.093 -0.120  0.023 -0.151  0.036  0.030
 0.062 -0.059  0.301  0.079  0.009  0.121 -0.182  0.044
 0.021  0.231 -0.167  0.152 -0.026 -0.088  0.061  0.086
-0.043  0.031  0.073  0.046 -0.005 -0.003 -0.076  0.151
 0.003 -0.103  0.039 -0.004 -0.039 -0.199 -0.096 -0.234
-0.013 -0.081  0.077  0.032 -0.024 -0.039  0.014  0.069
-0.016  0.068  0.050  0.033 -0.054 -0.023
  -16.093
 0.099  0.162 -0.015 -0.134 -0.101 -0.269  0.048  0.056
-0.098  0.077  0.017 -0.080 -0.023  0.031 -0.135 -0.036
 0.007  0.131 -0.155  0.157 -0.004  0.014  0.036 -0.065
 0.034  0.013 -0.016 -0.114  0.053  0.052  0.075 -0.002
-0.058 -0.175  0.069  0.008 -0.015 -0.122  0.102 -0.187
 0.016 -0.119  0.037 -0.012  0.040  0.036 -0.158  0.228
-0.052  0.127  0.020  0.067 -0.016  0.088  0.078  0.035
-0.052 -0.013 -0.126 -0.121  0.049  0.042  0.009  0.192
 0.042 -0.065  0.067 -0.164  0.015 -0.279  0.051  0.052
 0.042  0.036  0.123 -0.216  0.058  0.038 -0.074 -0.041
-0.111  0.016  0.214 -0.151 -0.080  0.027  0.043 -0.177
-0.082 -0.122 -0.149 -0.094 -0.187 -0.028
  -15.937
 0.016 -0.044  0.009  0.062  0.064  0.006  0.122 -0.132
-0.112 -0.040 -0.069  0.000  0.040 -0.055  0.143  0.121
-0.076  0.075  0.015 -0.018 -0.021 -0.023 -0.093  0.189
 0.036 -0.055 -0.084 -0.031  0.050 -0.002  0.100  0.080
-0.015 -0.055 -0.129  0.314  0.048 -0.165 -0.004  0.059
 0.074  0.049 -0.080  0.122  0.039  0.142  0.008 -0.057
-0.050  0.098  0.035  0.143 -0.018  0.045  0.053  0.116
-0.049 -0.030 -0.186 -0.088 -0.008 -0.074  0.246 -0.131
-0.065  0.247  0.172 -0.017 -0.077 -0.065  0.069 -0.057
-0.014  0.100 -0.077  0.090  0.061 -0.003 -0.132 -0.039
 0.147 -0.077 -0.060  0.330 -0.192 -0.089  0.048 -0.060
 0.129 -0.138 -0.168 -0.046 -0.063 -0.053
  -15.427
 0.042 -0.037  0.055  0.040 -0.122  0.049  0.001  0.127
-0.047  0.114 -0.067 -0.033 -0.050  0.038  0.030  0.002
 0.127  0.134  0.167 -0.150  0.043 -0.267  0.258 -0.140
-0.022  0.008 -0.012 -0.152  0.004  0.022  0.064 -0.026
 0.056  0.062 -0.001 -0.028 -0.018  0.012 -0.012  0.193
-0.050 -0.340  0.225 -0.064 -0.110  0.070  0.122 -0.087
-0.004  0.090  0.040  0.011 -0.015  0.115  0.093 -0.009
 0.002 -0.024 -0.092 -0.123 -0.011 -0.004  0.116 -0.024
-0.019  0.002 -0.008  0.065  0.088  0.060  0.018  0.054
-0.015 -0.034  0.022  0.096  0.018  0.091 -0.123 -0.032
 0.049  0.027  0.022  0.151  0.055  0.318 -0.007  0.073
-0.329 -0.051 -0.110  0.045  0.070 -0.101
  -15.336
 0.044 -0.002  0.090 -0.049  0.023 -0.029 -0.157  0.030
-0.023  0.057 -0.091  0.031  0.041 -0.127 -0.044  0.050
 0.021 -0.131 -0.151 -0.113 -0.032  0.040 -0.062 -0.140
-0.022 -0.070 -0.061 -0.073  0.008 -0.033  0.040 -0.001
 0.005 -0.175 -0.063  0.139  0.004  0.091 -0.270 -0.161
-0.033 -0.028 -0.046 -0.190 -0.003 -0.157 -0.069 -0.086
-0.003  0.016  0.022  0.038 -0.016  0.027  0.071  0.078
 0.006 -0.053 -0.103 -0.088 -0.037  0.169 -0.275 -0.136
-0.153  0.095  0.325  0.174  0.026  0.023 -0.177  0.024
-0.003 -0.141 -0.073 -0.040  0.015  0.052 -0.118  0.008
-0.009  0.153 -0.274 -0.189 -0.092 -0.021 -0.023  0.017
-0.072 -0.025 -0.105  0.131  0.020 -0.088
  -15.069
 0.008  0.095 -0.156  0.004 -0.012 -0.122 -0.101 -0.001
-0.021 -0.076  0.141 -0.112 -0.005  0.067  0.066  0.023
 0.001  0.034 -0.082 -0.102 -0.001 -0.153 -0.015 -0.115
 0.093  0.153  0.253  0.125  0.015  0.210 -0.090  0.099
-0.037 -0.057 -0.071  0.196  0.015  0.009 -0.084  0.008
 0.010 -0.151 -0.007 -0.107 -0.016  0.018 -0.117 -0.099
-0.018  0.159 -0.125  0.013  0.039 -0.033 -0.159 -0.242
-0.062  0.111  0.234  0.158 -0.010 -0.017  0.034 -0.047
-0.030  0.173  0.103 -0.013  0.018 -0.118 -0.094 -0.004
-0.003 -0.041 -0.113 -0.049  0.013 -0.082  0.216 -0.044
 0.035 -0.028 -0.046  0.078 -0.144  0.119  0.187  0.019
-0.114 -0.126  0.193 -0.038 -0.069  0.182
  -14.914
-0.008  0.025 -0.133 -0.022 -0.002 -0.090 -0.155 -0.092
 0.067  0.008  0.170  0.073 -0.039  0.074  0.038 -0.038
-0.008 -0.007 -0.100 -0.087  0.002 -0.120 -0.149 -0.120
-0.068  0.005 -0.140 -0.083  0.010 -0.248  0.018 -0.240
-0.020  0.000 -0.017  0.078  0.020  0.007  0.043  0.061
 0.011 -0.086 -0.099 -0.099 -0.005 -0.032 -0.230 -0.160
 0.000 -0.255  0.084 -0.225 -0.018  0.037  0.112  0.047
 0.040 -0.017 -0.097 -0.067 -0.009 -0.110  0.145  0.082
 0.017  0.073 -0.012 -0.052  0.001 -0.101 -0.156 -0.081
-0.002 -0.059 -0.230 -0.124 -0.042  0.006  0.126  0.052
 0.010 -0.137  0.150  0.132 -0.058  0.051 -0.256  0.032
-0.037  0.266 -0.066 -0.052 -0.041  0.062
  -14.736
-0.043  0.120 -0.090  0.049  0.036 -0.014  0.102  0.103
 0.026  0.054  0.223 -0.116  0.100  0.022  0.043  0.091
-0.042  0.002  0.054  0.052 -0.028  0.025  0.152  0.100
-0.010  0.202 -0.016 -0.145  0.001 -0.068  0.086 -0.231
-0.068  0.001 -0.040  0.150  0.007  0.011 -0.102 -0.067
 0.025  0.060  0.111  0.030  0.023  0.108  0.194  0.136
-0.013 -0.051  0.114 -0.233 -0.005  0.153  0.094 -0.133
 0.016  0.126 -0.021 -0.061  0.018  0.054 -0.152 -0.178
 0.029  0.131 -0.048 -0.058 -0.017 -0.058  0.140  0.144
-0.001  0.079  0.207  0.147 -0.027  0.019  0.175 -0.088
 0.030  0.063 -0.280 -0.092 -0.136  0.014 -0.162 -0.008
 0.017  0.152  0.000 -0.079 -0.100  0.102
  -14.417
-0.031 -0.115  0.121 -0.007  0.009  0.131 -0.037 -0.065
 0.007  0.229 -0.056 -0.173  0.071 -0.090  0.002  0.022
-0.010 -0.098  0.012 -0.014 -0.035  0.106 -0.149  0.009
-0.014  0.219  0.117 -0.296 -0.013  0.225  0.038 -0.073
-0.006  0.074  0.019 -0.058  0.011  0.020  0.046  0.038
-0.009  0.102 -0.106 -0.019  0.021 -0.096 -0.126 -0.078
 0.021  0.260  0.091 -0.128 -0.004  0.284  0.131 -0.255
 0.008  0.096  0.092 -0.166  0.005 -0.071  0.022  0.011
 0.046 -0.039 -0.151 -0.035 -0.026  0.034 -0.101 -0.077
 0.000 -0.060 -0.169 -0.097  0.009  0.213 -0.065 -0.162
 0.001 -0.099  0.022  0.020  0.047 -0.114  0.079  0.035
 0.096 -0.063 -0.003 -0.029  0.036 -0.112
  -14.225
-0.073 -0.008  0.114 -0.036  0.054 -0.023  0.093 -0.103
 0.001 -0.006 -0.064  0.030  0.133 -0.114 -0.083  0.096
-0.064 -0.040 -0.029  0.075 -0.053 -0.129 -0.063  0.129
-0.008 -0.074 -0.037  0.049 -0.010  0.008 -0.024  0.058
-0.069  0.071  0.098  0.000  0.073  0.028  0.059 -0.088
 0.044 -0.029  0.178 -0.288 -0.006  0.066  0.062 -0.237
 0.011 -0.021 -0.010  0.081 -0.002 -0.062 -0.029  0.092
 0.006 -0.047  0.003  0.024  0.031 -0.111 -0.093 -0.065
 0.131 -0.096 -0.280 -0.189 -0.017 -0.182 -0.163  0.276
-0.032 -0.086 -0.206  0.226  0.002 -0.014 -0.084  0.034
-0.002 -0.199 -0.147 -0.109 -0.054 -0.023  0.032 -0.010
-0.157 -0.023  0.005 -0.145 -0.243 -0.056
  -14.034
 0.014  0.204  0.115  0.158 -0.014 -0.025 -0.017  0.156
 0.013 -0.024 -0.050  0.010  0.025  0.160 -0.093  0.302
 0.025  0.062  0.009 -0.107  0.026  0.058  0.053 -0.138
 0.009 -0.018 -0.102  0.048 -0.043 -0.021  0.012  0.044
-0.042  0.068  0.185  0.160 -0.059  0.107 -0.164  0.038
-0.037 -0.063 -0.125  0.121 -0.004 -0.095 -0.126  0.076
 0.011 -0.011  0.076  0.115 -0.006 -0.008 -0.010  0.112
 0.024  0.012  0.001  0.080  0.050 -0.042 -0.025 -0.145
 0.166 -0.075 -0.257 -0.278  0.028  0.098  0.012 -0.206
 0.018 -0.046 -0.005 -0.231 -0.009 -0.061 -0.124 -0.035
 0.040  0.009 -0.156  0.025 -0.183  0.039 -0.013  0.094
 0.032 -0.033  0.060 -0.225  0.163 -0.076
  -13.459
 0.058 -0.022 -0.020 -0.143  0.006 -0.100 -0.034 -0.178
 0.001  0.024 -0.013 -0.041 -0.033  0.009 -0.055 -0.092
 0.017  0.126 -0.218 -0.144 -0.040  0.218 -0.118  0.083
 0.005  0.000  0.052 -0.007  0.022  0.020  0.045 -0.019
-0.031 -0.027  0.062  0.072  0.013  0.054 -0.164 -0.101
-0.046 -0.205 -0.021 -0.066 -0.017 -0.165  0.218  0.035
-0.012  0.014 -0.046 -0.048  0.004 -0.064  0.004 -0.032
-0.013  0.022 -0.036 -0.053  0.030 -0.100  0.095  0.013
 0.042 -0.068  0.004 -0.116  0.035  0.254 -0.051  0.000
-0.006 -0.165  0.349  0.260  0.010  0.020  0.079  0.003
 0.012 -0.230  0.117  0.120 -0.095 -0.236  0.003  0.004
-0.181  0.002 -0.052 -0.070  0.212  0.060
  -13.186
-0.063 -0.011 -0.112 -0.028  0.013 -0.003 -0.230 -0.016
 0.017 -0.009  0.064  0.059 -0.015  0.021 -0.006 -0.057
-0.011 -0.180 -0.143 -0.131  0.008 -0.106  0.039 -0.091
-0.042  0.041 -0.131 -0.015 -0.009  0.112 -0.255  0.048
-0.025 -0.023 -0.003  0.034  0.006  0.063 -0.107 -0.012
 0.010  0.078 -0.143 -0.076  0.011  0.117  0.045  0.089
 0.065 -0.068  0.119  0.008 -0.008  0.237 -0.099  0.116
 0.024 -0.163  0.226 -0.006 -0.020 -0.054  0.023  0.038
 0.004  0.037  0.004 -0.016 -0.015 -0.122  0.018 -0.001
 0.004  0.233  0.320  0.167 -0.026  0.137 -0.248  0.061
-0.002 -0.153  0.063  0.044 -0.038  0.125  0.137  0.061
 0.101  0.097  0.103 -0.018 -0.102 -0.263
  -12.904
-0.028  0.117 -0.143  0.046  0.009 -0.083  0.173 -0.084
-0.001  0.014  0.180  0.043 -0.008  0.144  0.014 -0.002
-0.008  0.191 -0.004  0.125 -0.011  0.103 -0.090  0.140
-0.010  0.036 -0.137 -0.020 -0.017  0.076 -0.188 -0.085
 0.019  0.018 -0.036  0.029 -0.015 -0.024  0.078 -0.078
-0.008 -0.104  0.129  0.020 -0.011 -0.089  0.036 -0.065
 0.038 -0.001  0.154  0.035 -0.009  0.136 -0.079  0.220
 0.018 -0.001  0.228  0.023 -0.026  0.090  0.004  0.048
-0.020  0.298 -0.116  0.144  0.021  0.110 -0.017  0.049
-0.006 -0.238 -0.136 -0.013 -0.027  0.070 -0.170 -0.070
-0.012  0.313  0.110  0.012 -0.003 -0.161  0.029 -0.074
-0.135  0.029  0.167  0.019  0.079 -0.182
  -12.825
-0.005 -0.024 -0.047 -0.187 -0.002 -0.026  0.020  0.067
-0.038 -0.079 -0.034 -0.167  0.038 -0.101 -0.072 -0.129
 0.010  0.066  0.137  0.030 -0.019  0.030  0.030 -0.041
-0.002  0.078  0.012  0.130  0.048  0.201  0.015  0.115
-0.037 -0.009  0.014  0.064  0.006 -0.065  0.044  0.088
 0.002 -0.004  0.075  0.126  0.009 -0.032 -0.033  0.024
 0.026 -0.195 -0.101 -0.227  0.013 -0.011 -0.339  0.086
-0.016 -0.193 -0.023 -0.274  0.039 -0.006 -0.012 -0.083
 0.020  0.055 -0.056 -0.020  0.006  0.048  0.084 -0.024
 0.004 -0.131 -0.100 -0.142  0.002  0.241  0.066  0.225
 0.018 -0.052 -0.164 -0.031 -0.086 -0.001  0.226 -0.012
 0.008  0.248 -0.238 -0.036  0.051 -0.035
  -12.751
 0.036 -0.021 -0.160  0.106 -0.020  0.047  0.094 -0.059
-0.009 -0.055  0.070  0.069 -0.176  0.228  0.111 -0.096
-0.019  0.098  0.089  0.046  0.022  0.038 -0.041  0.084
-0.001  0.052 -0.040 -0.030 -0.001 -0.035 -0.113  0.030
-0.001 -0.076  0.027  0.012  0.031 -0.054  0.031  0.024
 0.006 -0.027  0.112  0.054 -0.019 -0.025  0.021 -0.048
 0.016 -0.017  0.053  0.002 -0.003  0.251  0.011 -0.077
 0.005 -0.071  0.066  0.062  0.048 -0.030 -0.035 -0.080
-0.009 -0.496  0.461 -0.222 -0.009  0.074  0.028  0.041
-0.004  0.008 -0.189 -0.042 -0.012  0.000 -0.072  0.022
 0.009 -0.164 -0.191 -0.089 -0.043 -0.056  0.017 -0.031
-0.050  0.028  0.059 -0.004  0.039 -0.068
  -12.608
-0.001 -0.032 -0.047 -0.013 -0.018  0.032 -0.026  0.019
 0.010  0.130  0.090 -0.044 -0.015 -0.011  0.041 -0.074
 0.002 -0.022  0.031 -0.029  0.017 -0.021  0.035 -0.030
-0.009 -0.077 -0.036  0.007 -0.006  0.172  0.046 -0.266
-0.018 -0.026 -0.025 -0.015  0.018 -0.028 -0.010  0.041
 0.006  0.010 -0.006  0.010 -0.004  0.011 -0.007  0.005
 0.000  0.149  0.084 -0.036 -0.003 -0.450 -0.129  0.484
 0.003  0.297  0.168 -0.187  0.014 -0.023 -0.002 -0.025
-0.010 -0.133  0.133 -0.053 -0.009 -0.005  0.008 -0.007
 0.001  0.100 -0.037 -0.025 -0.004  0.159  0.055 -0.278
 0.005 -0.152 -0.076 -0.021  0.001  0.036 -0.052  0.004
 0.018 -0.063  0.090  0.010 -0.005 -0.018
  -12.337
 0.029  0.049  0.048  0.264 -0.027  0.062  0.048 -0.046
-0.007 -0.083 -0.097 -0.107 -0.106  0.284  0.075  0.228
-0.002 -0.034 -0.119  0.023  0.058  0.059 -0.033  0.050
 0.028  0.086 -0.002  0.075 -0.007  0.102  0.119  0.076
 0.072  0.047  0.060  0.022 -0.041  0.129 -0.021 -0.132
-0.008 -0.014 -0.028 -0.175 -0.020 -0.060  0.043 -0.056
-0.004 -0.040 -0.012 -0.148  0.007 -0.074 -0.119  0.001
 0.002 -0.002 -0.061 -0.178 -0.032  0.013 -0.011  0.056
 0.010 -0.079  0.046 -0.029 -0.028  0.023 -0.163  0.072
-0.005  0.470 -0.099  0.110  0.007  0.147  0.080  0.020
-0.015  0.308  0.190  0.041  0.020 -0.051  0.092  0.030
-0.066  0.108 -0.145 -0.011 -0.019  0.016
  -12.138
-0.030  0.006  0.038  0.227  0.035  0.073  0.046 -0.040
-0.016 -0.050 -0.032 -0.025 -0.027  0.094  0.137  0.200
-0.017 -0.071 -0.057  0.013 -0.040 -0.172  0.004  0.115
 0.017  0.034 -0.002  0.037 -0.007  0.044  0.058  0.021
 0.040  0.051 -0.024 -0.037 -0.030  0.072 -0.017 -0.058
-0.015  0.069 -0.118 -0.016  0.001  0.184 -0.062 -0.019
 0.000  0.001  0.000 -0.078  0.003 -0.013 -0.099  0.046
 0.002  0.028 -0.016 -0.092 -0.009 -0.009  0.002  0.024
-0.010 -0.188  0.128 -0.045  0.051 -0.180  0.027 -0.089
-0.001 -0.676  0.252  0.065  0.001  0.083  0.051 -0.023
-0.006  0.122  0.113  0.039  0.081  0.073  0.030  0.030
 0.096  0.043 -0.057  0.023 -0.100  0.012
  -11.943
-0.018 -0.025 -0.096 -0.033 -0.006  0.006 -0.032 -0.042
 0.072 -0.136  0.001 -0.133 -0.048  0.105 -0.018 -0.086
-0.001  0.001  0.021  0.016  0.002 -0.037 -0.024  0.001
-0.017  0.131 -0.139  0.060 -0.016  0.113 -0.041  0.099
 0.001 -0.012  0.031  0.048  0.000 -0.012  0.046  0.022
 0.001  0.017  0.027  0.028 -0.003  0.028 -0.006 -0.005
-0.045 -0.082  0.192  0.006 -0.001 -0.551  0.554 -0.289
 0.004 -0.076  0.064 -0.038  0.003  0.003 -0.010 -0.011
 0.008  0.029  0.013 -0.011  0.005 -0.011  0.036  0.007
 0.000 -0.074  0.020  0.006  0.018  0.069 -0.151  0.004
 0.001  0.058 -0.041 -0.024 -0.061  0.012  0.138 -0.002
 0.011  0.087 -0.001 -0.021 -0.011 -0.149
  -11.565
 0.029 -0.081 -0.001 -0.057 -0.048 -0.015 -0.092 -0.139
 0.015  0.045 -0.053  0.038 -0.072  0.108 -0.060 -0.069
 0.010  0.049  0.111  0.058  0.006 -0.069 -0.237 -0.105
-0.010 -0.046  0.038 -0.027  0.005 -0.023  0.009 -0.018
 0.031  0.023  0.093  0.103  0.013 -0.130  0.446  0.261
 0.017 -0.056 -0.080 -0.014 -0.005 -0.046 -0.169 -0.114
 0.008  0.042 -0.036 -0.001  0.000  0.041 -0.049  0.031
 0.000  0.031 -0.013  0.000  0.021 -0.010 -0.039 -0.051
 0.029 -0.005 -0.023 -0.035 -0.004 -0.041 -0.164 -0.139
 0.000  0.068  0.366  0.232  0.000 -0.002  0.029 -0.025
 0.004  0.311 -0.273 -0.163 -0.107 -0.017 -0.030 -0.014
-0.002 -0.035  0.002 -0.049  0.021  0.028
  -11.256
-0.024  0.242  0.034  0.181  0.028 -0.114  0.183  0.121
-0.037 -0.085  0.098 -0.065  0.132 -0.131  0.114  0.272
-0.035  0.138  0.005 -0.016  0.003  0.067  0.034  0.022
 0.033  0.089 -0.064  0.055 -0.014  0.037  0.003  0.030
-0.050 -0.057 -0.173 -0.231  0.082 -0.193  0.090  0.131
 0.036 -0.178 -0.187 -0.070  0.005 -0.085 -0.077 -0.044
-0.014 -0.066  0.058 -0.014  0.001 -0.031  0.033 -0.029
 0.000 -0.039  0.014 -0.012 -0.061  0.093 -0.001  0.074
-0.059  0.028  0.024  0.090 -0.008 -0.014 -0.227 -0.178
 0.001  0.089  0.141  0.076 -0.002  0.012 -0.030  0.032
-0.008 -0.339 -0.144 -0.128  0.238 -0.047  0.047 -0.098
-0.057  0.063 -0.011  0.104  0.065 -0.036
  -10.719
 0.054 -0.098  0.000  0.123 -0.077  0.221  0.109 -0.027
 0.039  0.026 -0.136  0.028 -0.206  0.485 -0.182 -0.178
 0.005 -0.063 -0.021 -0.069  0.024  0.000  0.127  0.151
-0.004 -0.031  0.028 -0.010 -0.014 -0.022  0.048  0.031
 0.016 -0.212  0.175 -0.055  0.085 -0.118 -0.072  0.006
 0.000 -0.002 -0.136 -0.069 -0.022  0.082  0.051  0.012
 0.008  0.039 -0.032 -0.020  0.000  0.023 -0.044  0.003
 0.010  0.027 -0.046 -0.016 -0.113  0.127 -0.029  0.120
 0.005  0.319 -0.126  0.093 -0.005 -0.040 -0.047 -0.061
-0.001 -0.089 -0.058 -0.014  0.002  0.017  0.033 -0.025
-0.013 -0.298 -0.126 -0.167 -0.068  0.028 -0.019 -0.076
 0.041 -0.020 -0.028 -0.014 -0.017  0.027
  -10.438
 0.011  0.088  0.078  0.134  0.012 -0.146 -0.281 -0.185
 0.012 -0.175 -0.127  0.176 -0.010  0.065 -0.019  0.244
-0.014  0.033 -0.021 -0.019  0.010 -0.108 -0.305 -0.193
 0.011 -0.008 -0.010  0.029 -0.011 -0.127 -0.031  0.158
-0.006 -0.074  0.007 -0.089  0.041 -0.073 -0.031  0.012
 0.013  0.064  0.304  0.215 -0.002 -0.006 -0.019 -0.014
 0.000  0.151  0.064 -0.165  0.000  0.017 -0.013 -0.015
 0.005  0.044 -0.003 -0.050 -0.063  0.080 -0.007  0.069
-0.013  0.086 -0.056  0.046  0.000  0.097  0.296  0.176
 0.000  0.004  0.020  0.011  0.001  0.182  0.089 -0.181
-0.007 -0.170 -0.049 -0.078  0.086 -0.001  0.004 -0.051
-0.013  0.004 -0.018  0.025  0.010  0.006
  -10.083
-0.004 -0.008 -0.032 -0.119  0.039 -0.020  0.155  0.140
-0.019 -0.269 -0.069  0.270  0.011 -0.145 -0.053 -0.139
-0.003  0.018  0.009  0.021  0.001  0.053  0.195  0.088
-0.004  0.046  0.017 -0.048  0.009 -0.316 -0.165  0.301
 0.002  0.032  0.009  0.048 -0.024  0.032  0.021  0.002
 0.002 -0.061 -0.156 -0.104  0.004  0.001  0.030  0.025
-0.002  0.307  0.151 -0.319  0.000 -0.049 -0.002  0.042
-0.004 -0.064 -0.011  0.067  0.044 -0.047  0.007 -0.046
 0.009 -0.034 -0.011 -0.018  0.003 -0.047 -0.147 -0.091
 0.000  0.004 -0.024 -0.026 -0.001  0.249  0.111 -0.260
 0.004  0.084  0.015  0.042 -0.053  0.007  0.000  0.024
-0.010  0.001  0.013 -0.016  0.001 -0.006
   -9.777
-0.001 -0.005  0.007  0.047 -0.026  0.037 -0.045 -0.054
 0.008  0.236  0.086 -0.235  0.004  0.069  0.042  0.048
 0.004 -0.014  0.000 -0.007 -0.005 -0.007 -0.070 -0.019
 0.000  0.332  0.153 -0.350 -0.003 -0.128 -0.050  0.135
-0.003 -0.003 -0.014 -0.015  0.008 -0.007 -0.008 -0.004
-0.004  0.026  0.046  0.028 -0.001 -0.003 -0.016 -0.012
 0.001  0.175  0.076 -0.181  0.001 -0.267 -0.136  0.281
 0.002 -0.331 -0.159  0.339 -0.015  0.014 -0.003  0.014
-0.004  0.003  0.018  0.003 -0.003  0.015  0.039  0.026
 0.000 -0.002  0.010  0.014  0.000 -0.172 -0.078  0.179
-0.001 -0.023  0.001 -0.010  0.021 -0.007 -0.001 -0.006
 0.007 -0.002 -0.004  0.007  0.000  0.002
   -9.419
 0.000 -0.018 -0.016  0.000  0.011  0.132  0.228  0.171
-0.004 -0.016  0.003  0.011 -0.017  0.033 -0.045 -0.139
 0.002  0.087  0.324  0.221  0.001 -0.068 -0.170 -0.116
 0.000 -0.004 -0.004  0.008 -0.001 -0.010 -0.004  0.004
-0.009 -0.041  0.016 -0.014 -0.033  0.097 -0.349 -0.234
-0.022  0.112  0.230  0.127 -0.003 -0.107 -0.370 -0.235
-0.001  0.003  0.005 -0.005  0.000  0.001  0.005 -0.006
 0.000  0.003  0.002 -0.003  0.032  0.059 -0.019 -0.050
 0.000  0.040 -0.003  0.011  0.006 -0.062 -0.168 -0.093
 0.000  0.078  0.245  0.158 -0.001  0.009  0.004 -0.011
 0.003 -0.133  0.143  0.111 -0.034  0.016 -0.001 -0.021
 0.011  0.001  0.001  0.000 -0.015  0.000
   -0.764
 0.009  0.108  0.074  0.215 -0.007  0.123  0.373  0.244
-0.034 -0.022  0.038  0.020  0.004 -0.118 -0.043 -0.285
-0.010 -0.105 -0.367 -0.226  0.019 -0.050 -0.156 -0.075
 0.031  0.034 -0.006  0.017 -0.021  0.016  0.023 -0.002
 0.001 -0.010 -0.002 -0.017  0.001 -0.022  0.075  0.050
 0.006 -0.036 -0.078 -0.043 -0.012 -0.075 -0.256 -0.156
-0.011  0.002  0.019 -0.008  0.001  0.001 -0.003  0.001
 0.005  0.002 -0.005  0.000  0.014 -0.127  0.082  0.048
 0.000  0.000 -0.004  0.005  0.001  0.120  0.388  0.248
 0.002  0.014  0.049  0.049 -0.001 -0.013 -0.005  0.013
-0.001  0.075 -0.073 -0.043 -0.046  0.000  0.002  0.050
-0.004  0.012 -0.005 -0.002  0.002 -0.001
   -0.498
-0.001  0.067  0.041  0.147  0.011  0.027  0.049  0.051
-0.002 -0.058 -0.030  0.075  0.004 -0.041 -0.063 -0.132
-0.014  0.113  0.289  0.213  0.013 -0.141 -0.433 -0.262
 0.019  0.072  0.018 -0.051 -0.014  0.037  0.026 -0.024
-0.019 -0.037 -0.008 -0.041 -0.029  0.033 -0.012 -0.028
-0.001 -0.122 -0.396 -0.257 -0.010  0.110  0.322  0.208
-0.005  0.010  0.012 -0.012  0.000 -0.015 -0.012  0.010
 0.006  0.044  0.013 -0.042  0.076  0.072 -0.108 -0.128
-0.002  0.011  0.001  0.005  0.004  0.031  0.106  0.071
 0.001 -0.025 -0.077 -0.036  0.000 -0.066 -0.030  0.067
-0.001 -0.053  0.089  0.091 -0.054  0.003 -0.001 -0.014
-0.003  0.005 -0.005  0.006 -0.004  0.000
   -0.228
 0.007 -0.013  0.006  0.108  0.054 -0.082 -0.073 -0.008
-0.017 -0.341 -0.147  0.362 -0.055 -0.097 -0.038 -0.055
-0.020  0.006 -0.054 -0.006  0.010  0.031  0.114  0.076
 0.019  0.309  0.127 -0.306 -0.003  0.098  0.045 -0.098
 0.027 -0.040  0.048 -0.004 -0.008  0.003 -0.004 -0.002
 0.011  0.021  0.110  0.081 -0.001 -0.012 -0.032 -0.021
-0.004  0.033  0.025 -0.037 -0.001 -0.070 -0.039  0.059
 0.003  0.251  0.115 -0.259  0.010 -0.028  0.040  0.019
-0.002  0.003 -0.029  0.005  0.003 -0.029 -0.083 -0.053
 0.000  0.002  0.007  0.004 -0.001 -0.324 -0.149  0.332
 0.000  0.017 -0.031 -0.018 -0.019  0.000 -0.002  0.010
-0.012  0.003 -0.002 -0.001  0.002 -0.001
   -0.042
 0.000  0.006 -0.003 -0.038 -0.016  0.028  0.026  0.003
 0.003  0.110  0.047 -0.110  0.018  0.028  0.011  0.017
 0.005 -0.006  0.002 -0.008 -0.010  0.003 -0.022 -0.007
 0.002  0.240  0.112 -0.263  0.000 -0.375 -0.174  0.380
-0.009  0.014 -0.017  0.003  0.004 -0.002  0.003  0.002
-0.004 -0.002 -0.021 -0.016  0.001 -0.003 -0.008 -0.002
-0.003 -0.375 -0.170  0.387 -0.001 -0.055 -0.030  0.050
 0.001  0.253  0.115 -0.259 -0.005  0.004 -0.008 -0.002
 0.001 -0.002  0.009 -0.002 -0.002  0.010  0.026  0.018
 0.000  0.000  0.000  0.003  0.001  0.130  0.059 -0.139
 0.000 -0.002  0.006  0.002  0.007  0.007  0.002 -0.003
 0.003  0.000  0.001  0.000  0.001 -0.001
    0.527
 0.011 -0.274 -0.107 -0.478  0.042  0.043  0.228  0.108
-0.027 -0.139  0.003  0.043 -0.028  0.156  0.148  0.382
 0.009 -0.007  0.092 -0.024 -0.061 -0.046 -0.064 -0.114
-0.075 -0.005  0.053 -0.046  0.056 -0.005 -0.030 -0.067
 0.088  0.092  0.046  0.123  0.089 -0.010 -0.114 -0.046
 0.005 -0.050 -0.177 -0.140  0.074 -0.031 -0.021 -0.102
 0.016  0.049  0.005 -0.044  0.005  0.002  0.033  0.034
-0.026  0.033  0.052 -0.055 -0.170  0.007  0.107  0.188
 0.001 -0.036 -0.019 -0.012 -0.016  0.076  0.203  0.122
-0.014  0.023  0.067 -0.089 -0.005 -0.080 -0.033  0.085
 0.005  0.021 -0.071 -0.118  0.120 -0.004  0.010 -0.085
 0.012 -0.015  0.024 -0.014 -0.002  0.000
    0.849
-0.032  0.009 -0.009 -0.078  0.009  0.001  0.022 -0.032
 0.026 -0.021 -0.052  0.033  0.060  0.114 -0.057  0.047
-0.068 -0.053 -0.008 -0.138 -0.031  0.022  0.129  0.050
-0.003 -0.006 -0.006 -0.023  0.002  0.008 -0.001 -0.005
 0.018  0.099 -0.072  0.026  0.146 -0.088  0.209  0.111
 0.061 -0.054 -0.017 -0.022  0.074 -0.043 -0.108 -0.189
 0.005  0.026  0.004 -0.027 -0.002 -0.007 -0.012 -0.008
 0.003  0.027  0.008 -0.026 -0.092  0.197 -0.572 -0.305
 0.000 -0.035  0.023 -0.011 -0.040  0.056  0.143  0.054
-0.017  0.026  0.096 -0.092  0.002 -0.040 -0.020  0.039
 0.004 -0.132  0.385  0.202 -0.108 -0.006 -0.004 -0.113
 0.001 -0.007 -0.001  0.001  0.016  0.001
    1.015
-0.037  0.018  0.040  0.146  0.100  0.000  0.027 -0.086
-0.002  0.036  0.010 -0.010 -0.005 -0.043  0.003 -0.117
-0.029  0.026  0.008 -0.030 -0.083 -0.099  0.001 -0.030
 0.028  0.004 -0.017  0.000 -0.013  0.004  0.008  0.012
 0.008 -0.012  0.013 -0.013  0.039  0.015 -0.026 -0.050
 0.079  0.040  0.094 -0.049  0.383  0.088  0.326 -0.398
-0.007 -0.022 -0.002  0.019 -0.003 -0.005 -0.017 -0.016
 0.006 -0.015 -0.015  0.020 -0.002 -0.086  0.082  0.055
 0.000  0.002 -0.005  0.004 -0.081  0.071 -0.099 -0.060
-0.086  0.076  0.306 -0.554  0.003  0.027  0.011 -0.031
 0.001  0.048 -0.053 -0.043 -0.014 -0.039 -0.003 -0.022
-0.060  0.004 -0.006 -0.002 -0.044 -0.002
    1.167
-0.037  0.006 -0.050 -0.040  0.008  0.003  0.007  0.012
-0.073  0.071 -0.090  0.040  0.010  0.016  0.007  0.023
-0.006  0.009  0.008  0.007 -0.005  0.006  0.000 -0.002
 0.398 -0.188 -0.381 -0.338  0.076 -0.014 -0.086 -0.069
-0.009  0.014 -0.013  0.010  0.004  0.003 -0.013 -0.008
-0.002 -0.006 -0.020 -0.008 -0.010 -0.007 -0.019  0.007
-0.077 -0.066  0.060 -0.041 -0.090 -0.230 -0.456 -0.430
 0.008 -0.015 -0.019 -0.006 -0.008 -0.008  0.024  0.021
 0.001 -0.002  0.006 -0.002  0.002  0.003  0.019  0.013
 0.003 -0.001 -0.007  0.017  0.071 -0.043 -0.058 -0.075
 0.000  0.007 -0.016 -0.012  0.017  0.007 -0.059 -0.006
 0.000 -0.049  0.036 -0.001  0.002 -0.055
    1.323
 0.050  0.050  0.028  0.114  0.072  0.101 -0.038  0.050
-0.032  0.013  0.042 -0.003 -0.034 -0.144  0.016 -0.126
-0.276  0.041  0.121 -0.242 -0.025  0.018 -0.069 -0.106
 0.024  0.020 -0.001  0.016 -0.006  0.006  0.009  0.000
 0.199  0.151  0.009  0.157  0.419 -0.045 -0.081 -0.115
 0.080 -0.068  0.092  0.087 -0.089  0.034  0.076  0.151
-0.011 -0.022  0.004  0.022  0.000 -0.001  0.000  0.000
 0.000 -0.022 -0.009  0.023 -0.326 -0.194 -0.095  0.165
-0.015 -0.104 -0.074 -0.010 -0.042 -0.067 -0.076 -0.143
 0.015 -0.022 -0.077  0.082  0.000  0.028  0.014 -0.028
 0.017  0.113  0.068 -0.125 -0.068  0.059  0.000 -0.332
 0.029  0.011 -0.002 -0.010  0.058 -0.003
    1.991
 0.018 -0.024  0.035 -0.153 -0.094  0.048  0.345  0.136
-0.040 -0.018  0.047 -0.030  0.046  0.098  0.008  0.050
 0.125 -0.169 -0.288 -0.165  0.016 -0.116 -0.301 -0.185
 0.006 -0.050 -0.019  0.021  0.022 -0.061 -0.031  0.026
-0.020  0.060 -0.029  0.010 -0.071 -0.071  0.080  0.105
-0.027  0.104  0.298  0.177  0.000  0.087  0.294  0.191
-0.006  0.051  0.034 -0.061 -0.003 -0.001 -0.008 -0.017
-0.012  0.053  0.042 -0.072 -0.021  0.078 -0.092 -0.048
 0.009  0.005  0.037 -0.003  0.010 -0.096 -0.305 -0.189
 0.001 -0.016 -0.051 -0.027  0.001 -0.074 -0.031  0.067
-0.001 -0.045  0.053  0.034  0.002 -0.039  0.007  0.106
 0.024 -0.004  0.014 -0.010 -0.008 -0.007
    2.217
-0.116  0.196 -0.050 -0.052  0.004  0.106 -0.063 -0.046
 0.143  0.223 -0.065 -0.155  0.140  0.141 -0.073 -0.055
-0.092  0.065  0.068 -0.045 -0.023  0.041  0.032 -0.010
-0.045 -0.190 -0.102  0.178 -0.045 -0.181 -0.092  0.253
-0.208  0.045 -0.159 -0.045  0.078  0.036 -0.004 -0.084
 0.007 -0.010 -0.024 -0.031 -0.014  0.010 -0.025 -0.020
 0.038  0.240  0.062 -0.237  0.001  0.035  0.018 -0.024
 0.036  0.273  0.081 -0.245  0.057 -0.170  0.069  0.016
 0.013  0.026  0.089 -0.003 -0.014  0.011  0.036  0.001
 0.000  0.000  0.003  0.004 -0.008 -0.245 -0.125  0.265
-0.001  0.076 -0.043 -0.013  0.091  0.038 -0.011 -0.054
 0.006 -0.023 -0.032 -0.004  0.003  0.026
    2.441
-0.406 -0.013 -0.109 -0.052  0.237 -0.071  0.032  0.171
 0.269 -0.035 -0.308  0.108  0.158  0.245 -0.039 -0.048
-0.182  0.012 -0.093  0.010 -0.073 -0.036 -0.032 -0.067
-0.125  0.070  0.025 -0.160 -0.059  0.175  0.056 -0.075
-0.228  0.103 -0.117 -0.057  0.031  0.016  0.028 -0.039
 0.092 -0.072  0.019  0.101  0.007 -0.050  0.030  0.081
 0.079 -0.085 -0.143  0.100  0.002 -0.008  0.004  0.035
 0.051 -0.079 -0.110  0.143  0.048 -0.108  0.037 -0.007
 0.041  0.061  0.152  0.007 -0.016 -0.054 -0.029 -0.017
 0.006  0.002 -0.026  0.023 -0.006  0.135  0.032 -0.114
 0.000  0.042 -0.019 -0.003  0.094  0.029 -0.024 -0.009
-0.064 -0.055 -0.043 -0.045  0.071  0.046
    2.634
-0.271 -0.142  0.030  0.177  0.137 -0.268 -0.045  0.119
 0.096  0.130 -0.007 -0.102 -0.001 -0.058  0.132 -0.152
 0.070 -0.042 -0.081  0.226  0.001 -0.090  0.013  0.072
-0.030 -0.093 -0.047  0.046 -0.043 -0.058 -0.022  0.118
 0.288  0.327  0.089  0.113 -0.118 -0.042 -0.101  0.136
 0.041 -0.029 -0.070  0.072  0.058 -0.081 -0.022  0.042
 0.023  0.066  0.006 -0.074 -0.001  0.014 -0.002 -0.016
 0.026  0.090  0.015 -0.064 -0.226  0.316  0.043  0.146
 0.035 -0.023  0.049  0.003  0.022 -0.018 -0.016  0.070
 0.003  0.007 -0.005  0.011  0.000 -0.060 -0.038  0.066
 0.010 -0.121 -0.003 -0.076 -0.191 -0.064 -0.001  0.031
-0.091 -0.023 -0.029 -0.069  0.035  0.013
    2.952
-0.040 -0.358  0.062  0.094  0.220 -0.111 -0.003  0.116
-0.071  0.007  0.144 -0.151 -0.134 -0.013  0.136  0.089
-0.265 -0.146 -0.014  0.036 -0.117 -0.086  0.008  0.000
-0.005 -0.112  0.001  0.026  0.036 -0.118 -0.018  0.026
 0.004 -0.350  0.192 -0.198  0.016  0.005  0.080 -0.103
 0.187 -0.211  0.018  0.106  0.049 -0.123  0.007  0.072
-0.018  0.017  0.050 -0.060 -0.002  0.007 -0.007 -0.017
-0.038  0.011  0.059 -0.072  0.153 -0.153 -0.056 -0.143
-0.019  0.057 -0.075  0.015 -0.107 -0.140  0.024  0.011
 0.004  0.009 -0.014  0.014  0.010 -0.063 -0.004  0.028
 0.000  0.045  0.032  0.040 -0.043  0.033  0.045  0.074
-0.038 -0.024  0.040  0.042  0.248 -0.038
    3.095
 0.059 -0.026 -0.105 -0.035  0.155  0.269 -0.113  0.155
 0.012 -0.006 -0.024 -0.051 -0.064 -0.063  0.013  0.076
-0.117  0.252 -0.230  0.084 -0.079  0.178 -0.129  0.043
-0.040 -0.028 -0.016  0.000  0.015 -0.030 -0.025 -0.016
 0.080 -0.090  0.000  0.023 -0.029  0.049  0.056  0.074
 0.120  0.267 -0.115  0.121  0.102  0.221 -0.093  0.082
 0.024  0.010 -0.019 -0.018 -0.001 -0.003  0.003  0.000
-0.006 -0.003 -0.002 -0.020  0.051  0.096 -0.017 -0.017
-0.037 -0.039 -0.093 -0.019 -0.068  0.225 -0.144  0.066
 0.003 -0.023  0.000  0.005 -0.010 -0.008 -0.010  0.003
-0.009 -0.032 -0.008  0.046 -0.034  0.317  0.016 -0.074
-0.428 -0.024  0.023  0.060 -0.116  0.016
    3.314
 0.058 -0.040  0.243 -0.001  0.044  0.036 -0.034 -0.041
-0.159  0.001  0.130  0.066  0.034 -0.003  0.003 -0.087
-0.045  0.028  0.009  0.001 -0.098  0.036  0.003  0.014
 0.129  0.028  0.082  0.068  0.048 -0.004  0.047  0.014
-0.254  0.234  0.341  0.117  0.005  0.026  0.039 -0.014
 0.041  0.039 -0.029  0.012  0.060  0.024 -0.055  0.057
-0.111 -0.008  0.104  0.034  0.003  0.002  0.003  0.006
-0.048 -0.010  0.054  0.015 -0.023  0.056 -0.019 -0.039
 0.181  0.176  0.330  0.135 -0.076  0.032 -0.029  0.040
 0.003 -0.004 -0.005  0.013  0.051 -0.015  0.054  0.013
 0.013 -0.038  0.035 -0.022  0.372  0.125 -0.041 -0.014
-0.084  0.099 -0.001 -0.357  0.057 -0.107
    3.417
 0.065  0.132 -0.098 -0.035 -0.276 -0.011 -0.003 -0.002
-0.019  0.056 -0.075  0.082  0.016 -0.015 -0.097 -0.001
 0.024 -0.267  0.078  0.084 -0.037 -0.089 -0.133  0.263
 0.026  0.088 -0.039  0.047  0.020  0.075 -0.034  0.027
-0.008 -0.004 -0.140  0.169 -0.042 -0.078 -0.074 -0.013
 0.180 -0.081  0.022 -0.029  0.227  0.082 -0.106  0.118
-0.007  0.053 -0.038  0.047  0.001 -0.009  0.011  0.004
 0.002  0.039 -0.034  0.041 -0.067 -0.003 -0.003  0.053
-0.047 -0.086 -0.090 -0.032 -0.386 -0.047 -0.061  0.136
 0.000 -0.019  0.014 -0.012 -0.004  0.054 -0.030  0.028
-0.003  0.007 -0.011 -0.007  0.096  0.141 -0.102  0.123
-0.075  0.088 -0.018  0.062  0.432  0.055
    3.488
-0.049 -0.027  0.123 -0.083  0.119 -0.002  0.072 -0.126
-0.135  0.097 -0.007  0.135  0.071  0.114  0.053  0.031
 0.076  0.149  0.004 -0.095 -0.289 -0.034  0.028 -0.023
 0.134  0.114  0.026  0.114  0.114  0.105  0.001  0.086
 0.095  0.089 -0.113 -0.337  0.020  0.048  0.027 -0.014
-0.188  0.084  0.000 -0.035  0.128 -0.112 -0.047  0.132
-0.115  0.080  0.033  0.094  0.004 -0.006  0.015  0.009
-0.071  0.071  0.024  0.087  0.037 -0.023  0.078  0.002
-0.006  0.045  0.052 -0.037 -0.026 -0.001 -0.079  0.118
 0.007  0.014 -0.019  0.023  0.085  0.069  0.021  0.074
 0.006  0.009 -0.016 -0.031 -0.389  0.204 -0.237 -0.058
 0.106  0.221 -0.034  0.085  0.074 -0.066
    3.506
-0.031 -0.083 -0.109 -0.002  0.070  0.032 -0.026  0.097
-0.152  0.219 -0.123  0.083 -0.060 -0.041  0.024  0.034
-0.110 -0.043 -0.065  0.082  0.164  0.034  0.030 -0.096
 0.090  0.206 -0.119  0.176  0.148  0.134 -0.132  0.115
-0.004 -0.113  0.066  0.128 -0.021 -0.011  0.014  0.007
 0.106 -0.066 -0.019  0.079 -0.158  0.011  0.081 -0.119
-0.078  0.200 -0.107  0.125  0.004 -0.010  0.033 -0.005
-0.093  0.137 -0.076  0.074  0.014  0.026 -0.039 -0.017
-0.017 -0.029 -0.068  0.005  0.144 -0.033  0.075 -0.111
-0.005  0.001  0.006 -0.012  0.035  0.154 -0.114  0.115
-0.005 -0.009  0.006  0.028  0.144 -0.170 -0.337  0.026
-0.076  0.330  0.044 -0.001 -0.139  0.139
    3.608
 0.049  0.078  0.079 -0.137 -0.141  0.060 -0.076  0.054
-0.021 -0.037  0.014  0.030  0.065  0.033  0.009  0.072
-0.136 -0.212  0.058  0.079  0.268  0.136 -0.015 -0.027
 0.045 -0.009  0.077 -0.007  0.050  0.001  0.053 -0.004
 0.036  0.209 -0.038 -0.355 -0.027 -0.051 -0.023 -0.095
 0.326 -0.058 -0.015  0.018 -0.134  0.221 -0.013 -0.107
-0.037 -0.038  0.063  0.006  0.002  0.007  0.000  0.009
-0.027 -0.018  0.060  0.025 -0.049 -0.057  0.089 -0.002
 0.053  0.102  0.166  0.003 -0.081  0.058  0.096 -0.157
-0.003 -0.029  0.014 -0.005  0.059 -0.025  0.084  0.002
 0.023  0.008  0.015 -0.099 -0.346 -0.128 -0.029  0.144
-0.235 -0.005 -0.027 -0.022 -0.047 -0.138
    3.616
 0.041  0.065  0.029 -0.005 -0.031  0.044 -0.004 -0.041
-0.121 -0.084 -0.082 -0.103 -0.004 -0.060  0.035  0.022
-0.015  0.013  0.019 -0.026 -0.034  0.030 -0.012  0.014
-0.124  0.077 -0.163 -0.004 -0.042 -0.098 -0.173 -0.182
 0.009  0.134  0.117 -0.185 -0.004  0.009  0.025 -0.040
-0.021 -0.022  0.031 -0.043  0.013  0.015 -0.009  0.001
 0.016  0.085 -0.229 -0.014 -0.003 -0.014  0.008 -0.007
-0.092 -0.073 -0.247 -0.177 -0.012  0.011  0.041 -0.024
 0.072  0.099  0.149  0.043 -0.050 -0.013 -0.001  0.011
-0.001 -0.001  0.003 -0.004 -0.152  0.069 -0.294 -0.069
 0.015 -0.014  0.018 -0.051 -0.134  0.064  0.186  0.024
 0.061  0.087  0.388 -0.103  0.057  0.423
    3.801
-0.121 -0.125  0.143  0.071 -0.062 -0.326  0.043  0.036
-0.008 -0.039  0.026 -0.045  0.053  0.141 -0.018 -0.075
 0.195 -0.053  0.162 -0.154  0.083 -0.157  0.058  0.019
-0.001 -0.053  0.071 -0.019  0.009 -0.042  0.044 -0.013
-0.075 -0.097 -0.093  0.016  0.103 -0.019 -0.085  0.042
 0.075  0.240 -0.088 -0.007  0.122  0.064 -0.138  0.170
-0.175  0.006 -0.069 -0.029  0.001  0.016 -0.004  0.009
-0.180 -0.001 -0.098 -0.052 -0.001 -0.200 -0.070  0.003
-0.034 -0.033 -0.050 -0.022 -0.050  0.252 -0.048 -0.035
 0.015 -0.020 -0.027  0.055  0.147  0.006 -0.082 -0.025
-0.007  0.074  0.004  0.028  0.055 -0.202  0.040 -0.083
-0.251  0.149  0.248  0.060 -0.179 -0.049
    3.844
-0.040 -0.072 -0.064  0.012 -0.075 -0.189  0.066  0.033
-0.024  0.092  0.040  0.071 -0.071 -0.076  0.110  0.057
 0.119 -0.007  0.116 -0.170  0.045 -0.048 -0.006  0.019
-0.001  0.103 -0.186  0.028 -0.063  0.088 -0.112  0.051
-0.003 -0.066  0.201 -0.144  0.068 -0.008 -0.003 -0.019
 0.014  0.133  0.010 -0.081  0.081  0.089 -0.096  0.111
 0.262  0.054  0.064  0.080 -0.006 -0.029 -0.004 -0.034
 0.296  0.036  0.106  0.079  0.008 -0.121 -0.043 -0.067
 0.048  0.079  0.066  0.051 -0.084  0.193 -0.031 -0.046
 0.009 -0.018 -0.015  0.033 -0.297  0.051  0.004  0.050
 0.012  0.031  0.042 -0.021 -0.030 -0.062 -0.060 -0.022
-0.067 -0.147 -0.374 -0.087 -0.108  0.261
    3.934
-0.019  0.056 -0.145  0.083 -0.083 -0.062 -0.016  0.098
 0.084 -0.122 -0.125 -0.202 -0.073 -0.139  0.051  0.028
 0.047  0.065  0.022 -0.085  0.058  0.021 -0.083  0.103
-0.229 -0.016 -0.148 -0.071  0.336  0.025  0.079  0.077
 0.011 -0.006  0.165 -0.063  0.025  0.012  0.018 -0.005
-0.091 -0.019  0.087 -0.116  0.040  0.068 -0.021  0.006
 0.212 -0.008 -0.200 -0.098 -0.002 -0.003  0.011  0.000
-0.291  0.019  0.100  0.053  0.000 -0.017 -0.015 -0.038
 0.046  0.055  0.059  0.050 -0.065  0.076 -0.024 -0.005
-0.001 -0.009  0.008 -0.008  0.212  0.084  0.089  0.126
 0.009 -0.002  0.025 -0.017 -0.005  0.042 -0.319 -0.024
 0.158 -0.195  0.132 -0.095 -0.013 -0.211
    4.051
 0.036  0.015  0.202  0.020  0.052  0.061 -0.002 -0.119
-0.299 -0.059 -0.132 -0.097  0.088  0.124 -0.097 -0.083
-0.004 -0.045  0.002  0.059 -0.055 -0.138  0.117 -0.075
-0.001  0.173 -0.119  0.101  0.314 -0.088 -0.062 -0.121
-0.045  0.053 -0.167  0.062 -0.001  0.002 -0.037  0.029
 0.058  0.085 -0.134  0.148  0.004 -0.126  0.017  0.022
 0.301 -0.031  0.073  0.011  0.005 -0.015  0.039  0.003
-0.045 -0.206  0.144 -0.132 -0.007 -0.009  0.008  0.047
-0.028 -0.043 -0.021 -0.036  0.079 -0.109  0.004  0.055
 0.002  0.014 -0.010  0.010 -0.216 -0.021  0.165  0.047
-0.009  0.011 -0.026  0.019  0.019 -0.127 -0.130 -0.022
-0.200 -0.267  0.082  0.060  0.046  0.024
    4.236
 0.132  0.132 -0.141 -0.051 -0.052  0.238 -0.020 -0.039
 0.147 -0.040  0.080  0.015 -0.058 -0.133  0.017  0.085
 0.021  0.094 -0.027 -0.051  0.068 -0.359  0.138 -0.052
-0.074 -0.055 -0.038 -0.090 -0.084  0.041  0.053  0.054
 0.008  0.023  0.113 -0.107  0.039  0.082  0.014  0.047
-0.023  0.254 -0.159  0.137  0.036 -0.148  0.039  0.023
-0.028  0.016 -0.100 -0.022 -0.005  0.002 -0.021 -0.012
-0.019  0.110 -0.010  0.107  0.033 -0.009 -0.003 -0.019
 0.042  0.055  0.066  0.041  0.017 -0.280 -0.013  0.150
 0.001  0.013 -0.004 -0.002  0.113  0.054 -0.067  0.019
 0.001 -0.001  0.001  0.007 -0.050 -0.360  0.016 -0.125
-0.244  0.038 -0.071 -0.077  0.249 -0.011
    4.287
 0.080  0.039  0.133  0.028  0.068 -0.003  0.163 -0.325
 0.123 -0.147  0.271  0.008  0.028  0.031 -0.011 -0.064
-0.003 -0.169  0.075  0.035 -0.235  0.138  0.081 -0.170
-0.182 -0.066 -0.210 -0.164 -0.038  0.016  0.188  0.087
 0.013  0.003 -0.051  0.083 -0.053 -0.118 -0.005 -0.086
 0.131 -0.003 -0.064  0.074 -0.052 -0.074  0.001  0.023
 0.105  0.084 -0.166  0.013 -0.016 -0.025 -0.047 -0.040
-0.137  0.127  0.107  0.176 -0.061  0.018  0.016 -0.002
-0.021 -0.035 -0.038 -0.017  0.072  0.030  0.053 -0.086
 0.005  0.011 -0.017  0.023  0.067  0.186 -0.137  0.117
 0.010 -0.008  0.019 -0.041  0.034  0.170  0.005  0.196
-0.143  0.012 -0.097  0.031 -0.103  0.126
    4.376
-0.058 -0.045  0.060  0.033  0.189 -0.024  0.066 -0.091
-0.008  0.005  0.014 -0.008  0.014  0.042  0.034 -0.055
 0.074  0.170 -0.076 -0.024  0.050  0.109  0.158 -0.303
-0.003  0.008 -0.015  0.001  0.010 -0.002  0.009  0.010
 0.044 -0.015 -0.023  0.088 -0.045  0.127  0.088 -0.005
 0.125  0.209  0.214 -0.412 -0.116  0.200 -0.080  0.024
 0.018 -0.006 -0.004 -0.008  0.000  0.001  0.000 -0.002
-0.015 -0.007  0.003 -0.008  0.083  0.182  0.056  0.033
-0.025 -0.030 -0.050 -0.026 -0.371 -0.127  0.174 -0.211
 0.008 -0.033 -0.016  0.042 -0.004  0.007 -0.003  0.006
-0.017 -0.051 -0.053  0.048  0.025 -0.131 -0.010 -0.071
-0.001 -0.020  0.015  0.046  0.272  0.008
    4.406
-0.016  0.117 -0.238  0.031  0.034  0.010  0.196 -0.266
 0.032  0.101 -0.165  0.020 -0.075 -0.141  0.069  0.036
 0.027 -0.087  0.079 -0.055 -0.203 -0.008  0.088 -0.150
 0.079  0.052  0.156  0.123 -0.035  0.173 -0.206  0.079
 0.056 -0.043  0.115  0.012 -0.037 -0.122  0.026 -0.105
 0.094  0.076 -0.037  0.009  0.003 -0.105 -0.014  0.080
-0.068 -0.226  0.005 -0.218  0.015  0.026  0.045  0.046
 0.120 -0.020 -0.241 -0.129 -0.064  0.009  0.007 -0.056
 0.012  0.008 -0.010  0.030  0.022  0.031  0.052 -0.094
 0.008  0.009 -0.023  0.031  0.101 -0.146 -0.004 -0.142
 0.023 -0.013  0.052 -0.070  0.010  0.057 -0.164  0.200
-0.131 -0.210  0.130 -0.045 -0.071 -0.120
    4.558
 0.059 -0.093  0.230 -0.044 -0.007 -0.008 -0.081  0.088
 0.010 -0.113  0.280  0.024  0.053  0.107 -0.025 -0.029
-0.013 -0.004 -0.031  0.048  0.107  0.071 -0.028  0.023
 0.023 -0.060  0.101 -0.018  0.003  0.301 -0.082  0.254
-0.032  0.016 -0.064 -0.007  0.022  0.073 -0.026  0.069
-0.057 -0.059 -0.023  0.066 -0.026  0.115  0.005 -0.070
-0.031 -0.280  0.060 -0.243  0.003  0.013 -0.003  0.012
 0.024  0.034 -0.110 -0.014  0.042 -0.014 -0.012  0.040
-0.010 -0.005  0.002 -0.022  0.008 -0.036 -0.063  0.116
-0.006 -0.008  0.016 -0.020  0.005  0.086 -0.308 -0.055
-0.017  0.011 -0.036  0.050 -0.003 -0.013 -0.328 -0.122
 0.046 -0.286  0.044  0.034  0.060  0.253
    4.660
 0.045 -0.008  0.034 -0.021 -0.107  0.041 -0.110  0.151
 0.000 -0.047  0.048 -0.008  0.013  0.012 -0.048  0.013
 0.019  0.057 -0.035  0.005 -0.118 -0.172 -0.162  0.344
 0.007 -0.041  0.042 -0.019  0.022  0.044 -0.003  0.036
-0.016  0.039 -0.035 -0.010  0.000  0.070  0.010  0.024
 0.199  0.153  0.112 -0.239 -0.002 -0.471  0.128  0.036
-0.021 -0.033  0.048 -0.011  0.000  0.000 -0.005  0.002
-0.003 -0.004  0.010  0.002  0.035  0.036  0.017  0.025
 0.002  0.004  0.016 -0.007  0.038 -0.065  0.296 -0.431
 0.002  0.038 -0.017  0.008 -0.029  0.030 -0.062  0.001
-0.009 -0.008 -0.027  0.025 -0.012  0.149 -0.059 -0.067
-0.101 -0.019 -0.004  0.005 -0.130  0.074
    4.848
 0.004  0.077 -0.078  0.067  0.042  0.070  0.000 -0.037
 0.111 -0.224 -0.150 -0.284 -0.013 -0.049 -0.030 -0.010
-0.057  0.069  0.010 -0.036 -0.012 -0.098  0.070 -0.059
 0.005 -0.327  0.313 -0.180  0.225  0.036 -0.074  0.004
 0.011  0.016 -0.012  0.040 -0.033 -0.101  0.048 -0.106
-0.028 -0.020  0.015 -0.019  0.058  0.018 -0.048  0.066
-0.161  0.045  0.336  0.191 -0.001  0.030 -0.033  0.012
-0.004 -0.068  0.125 -0.011 -0.060  0.035  0.039 -0.049
-0.002 -0.011 -0.008  0.001 -0.028  0.079 -0.034  0.017
 0.004 -0.004 -0.007  0.014 -0.212  0.094 -0.084  0.053
 0.024 -0.016  0.044 -0.073  0.011 -0.093 -0.186  0.164
 0.034  0.174 -0.041 -0.003 -0.027  0.227
    4.897
-0.068  0.016 -0.037  0.064 -0.079 -0.232  0.124 -0.076
 0.008 -0.107 -0.127 -0.165 -0.015 -0.021  0.042 -0.010
 0.226 -0.113  0.052 -0.002 -0.012  0.351 -0.117  0.005
-0.044 -0.106  0.088 -0.054  0.086  0.003 -0.148 -0.060
-0.012 -0.042  0.059 -0.065  0.062  0.051 -0.131  0.182
 0.000  0.195 -0.114  0.075 -0.207  0.016  0.128 -0.212
-0.078  0.060  0.024  0.066  0.000  0.009 -0.004  0.011
 0.086  0.006  0.025  0.017  0.026 -0.146 -0.099  0.049
 0.017  0.015  0.019  0.034  0.074 -0.317  0.070  0.049
-0.013  0.009  0.021 -0.037 -0.025 -0.043  0.014 -0.034
-0.024  0.047 -0.030  0.078 -0.009  0.249 -0.054 -0.184
-0.158  0.114 -0.079 -0.049  0.171 -0.007
    4.948
 0.061 -0.014  0.152  0.033  0.025  0.055 -0.042 -0.009
-0.178 -0.229 -0.040 -0.239  0.033  0.046 -0.055 -0.040
-0.061 -0.014 -0.021  0.037 -0.010 -0.086  0.042 -0.005
-0.151  0.013 -0.047 -0.012  0.084  0.009 -0.386 -0.165
-0.017  0.042 -0.057  0.025 -0.012  0.041  0.023 -0.016
 0.023 -0.087  0.039 -0.017  0.059 -0.004 -0.042  0.063
-0.130  0.038 -0.338 -0.112  0.003  0.009  0.018  0.017
 0.280  0.137  0.061  0.163  0.023  0.052  0.025  0.025
-0.006 -0.007  0.003 -0.017 -0.023  0.107 -0.017 -0.025
 0.004 -0.003 -0.006  0.012  0.190 -0.190 -0.086 -0.222
-0.007 -0.012 -0.022  0.015  0.004 -0.057 -0.044 -0.017
 0.050  0.106 -0.324  0.022 -0.061 -0.123
    5.069
-0.036 -0.100  0.104 -0.002  0.030 -0.055 -0.132  0.190
-0.054  0.013  0.051  0.023  0.027  0.070 -0.015 -0.028
 0.018  0.337  0.046 -0.159  0.100  0.068 -0.071  0.091
-0.012  0.055 -0.052  0.034  0.010 -0.005  0.013  0.005
-0.021 -0.019 -0.053  0.057 -0.032 -0.369  0.023 -0.178
-0.143  0.245 -0.059 -0.056 -0.082 -0.004  0.069 -0.111
-0.021 -0.009 -0.110 -0.059  0.001 -0.003  0.007  0.000
 0.035 -0.024  0.059  0.002 -0.212 -0.099  0.031 -0.172
-0.022 -0.020 -0.030 -0.027  0.020 -0.207  0.031  0.063
-0.008  0.003  0.014 -0.024  0.031 -0.065 -0.051 -0.084
 0.073  0.014  0.160 -0.212  0.032  0.025 -0.003  0.409
-0.056 -0.002 -0.047  0.048  0.134 -0.006
    5.144
 0.015 -0.035  0.087  0.008  0.009 -0.006 -0.037  0.031
-0.102 -0.101 -0.007 -0.103  0.018  0.035 -0.020 -0.019
-0.005  0.050  0.003 -0.015  0.016  0.003 -0.007  0.019
 0.020 -0.046  0.041 -0.025 -0.161  0.001 -0.360 -0.160
-0.012  0.010 -0.027  0.013 -0.005 -0.049  0.003 -0.025
-0.018  0.025 -0.004 -0.011 -0.007 -0.002  0.006 -0.012
 0.167 -0.037  0.242  0.072 -0.001 -0.002 -0.003 -0.004
-0.036  0.376 -0.401  0.187 -0.028 -0.010  0.007 -0.019
-0.005 -0.004 -0.002 -0.011  0.001 -0.019  0.004  0.005
-0.001  0.000  0.002 -0.003  0.108  0.293  0.199  0.373
 0.009  0.002  0.019 -0.027  0.007  0.000  0.118  0.055
-0.002 -0.129  0.049  0.016  0.013 -0.109
    5.440
-0.049  0.016 -0.099  0.017  0.014 -0.014  0.025 -0.015
-0.118  0.135 -0.248  0.010 -0.014 -0.025 -0.007  0.017
 0.027 -0.002 -0.018  0.034 -0.012  0.009  0.005 -0.017
 0.154  0.080  0.154  0.151  0.113 -0.280  0.110 -0.220
-0.002 -0.005  0.006 -0.017  0.003 -0.028 -0.040  0.043
 0.002 -0.001  0.008 -0.014 -0.002  0.003 -0.002  0.004
-0.104 -0.262  0.070 -0.225  0.013  0.015  0.032  0.028
-0.169  0.157  0.267  0.269 -0.012 -0.046 -0.030  0.008
 0.007 -0.001  0.006  0.020 -0.007  0.001  0.004 -0.007
 0.000  0.000 -0.001  0.001  0.152  0.199 -0.352  0.038
-0.003  0.012  0.001  0.009 -0.006  0.007  0.183 -0.005
 0.006 -0.177 -0.176 -0.027  0.002  0.181
    5.565
-0.051  0.003  0.001  0.015 -0.117 -0.159  0.035  0.060
-0.009  0.016 -0.044 -0.002  0.006  0.001  0.019 -0.035
-0.112 -0.123  0.225 -0.388  0.043  0.056 -0.072  0.074
 0.015  0.007  0.018  0.016  0.014 -0.032  0.008 -0.027
 0.031  0.041  0.004  0.097  0.008  0.333  0.338 -0.337
-0.009  0.054 -0.095  0.150 -0.029  0.002  0.036 -0.056
-0.011 -0.023  0.009 -0.018  0.001  0.001  0.004  0.004
-0.016  0.013  0.026  0.024  0.138  0.391  0.248 -0.057
-0.029  0.019 -0.026 -0.097  0.073 -0.051 -0.032  0.066
-0.004  0.003  0.008 -0.013  0.013  0.017 -0.030  0.004
 0.015 -0.102 -0.025 -0.056  0.027  0.044  0.020 -0.062
-0.087 -0.014 -0.016  0.129  0.006  0.015
    6.084
-0.049  0.116  0.050 -0.051 -0.020  0.049 -0.005 -0.030
 0.010 -0.009 -0.028  0.002 -0.001 -0.037  0.168 -0.065
 0.034 -0.016 -0.048  0.094 -0.008 -0.011  0.006 -0.001
-0.001 -0.002  0.008 -0.004  0.006 -0.003  0.003 -0.008
-0.137  0.104  0.343  0.022  0.006  0.020 -0.072  0.131
 0.012 -0.021  0.014 -0.014  0.006 -0.006 -0.003  0.007
-0.003 -0.002  0.003  0.001  0.000  0.001  0.000  0.002
-0.003 -0.001  0.005  0.003 -0.100 -0.059  0.015 -0.139
-0.067  0.259  0.051 -0.500 -0.008  0.009  0.005 -0.012
 0.000  0.000 -0.001  0.001  0.000  0.002 -0.003  0.000
 0.043  0.023  0.095 -0.116  0.103 -0.002  0.001 -0.077
 0.012  0.001 -0.001  0.597 -0.003  0.002
    6.173
 0.219 -0.370 -0.282  0.257  0.090 -0.102  0.083 -0.005
-0.012  0.046  0.071 -0.025 -0.107 -0.123 -0.579  0.198
 0.036 -0.019 -0.016  0.015 -0.023  0.029  0.014 -0.054
 0.002 -0.003 -0.017  0.013 -0.013  0.004 -0.001  0.026
-0.195  0.251 -0.154 -0.051  0.001  0.064 -0.024  0.061
 0.003  0.003  0.007 -0.007 -0.009  0.015 -0.004  0.003
 0.005  0.005 -0.003 -0.003 -0.001 -0.002  0.001 -0.005
 0.004  0.001 -0.007 -0.008 -0.071 -0.012  0.107 -0.105
 0.013  0.071  0.102 -0.102 -0.007 -0.001  0.001 -0.002
 0.000 -0.001 -0.001  0.002 -0.001 -0.004  0.005  0.000
 0.045  0.001  0.066 -0.125 -0.008  0.009 -0.005 -0.070
 0.002 -0.001  0.004  0.098  0.004 -0.003
    6.372
-0.037  0.069  0.061 -0.051 -0.020  0.022  0.008 -0.030
 0.000 -0.012 -0.010  0.006  0.033  0.059  0.087 -0.040
 0.049 -0.080 -0.067  0.112 -0.007  0.000  0.002 -0.002
-0.001  0.001  0.002 -0.003  0.002  0.000 -0.001 -0.005
 0.036 -0.201 -0.118  0.040 -0.018  0.226 -0.047  0.206
 0.032 -0.038  0.020 -0.004  0.003 -0.002 -0.003  0.006
 0.000  0.000  0.000  0.001  0.000  0.000  0.000  0.001
 0.000  0.000  0.000  0.001 -0.167 -0.023  0.326 -0.502
-0.005 -0.102 -0.079  0.171 -0.008  0.011  0.005 -0.016
 0.000  0.000 -0.001  0.001  0.000  0.000  0.000  0.000
 0.169 -0.020  0.265 -0.426  0.011  0.003  0.001 -0.220
 0.010  0.000 -0.001 -0.164 -0.005  0.000

> <Ames Mutagenicity (v. 3.1) Model OPS confidence>
None

> <Rat Oral LD50 (v. 3.1) Model mg/kg>
3960.000000

> <USAN>
LORAZEPAM                              USAN

> <IU>
ADDICTION: acute-alcohol-withdrawal-syndrome (experimental-use); ENCEPHALOPATHY:
ere anxiety; psychogenic-catatonia (experimental-use); MISC: chemotherapy-induce

> <MA>
GABAMINERGIC; BENZODIAZEPINE-AGONIST.

> <INN>
LORAZEPAM                              Rec.

> <ADME H-bond Donors (Whole Molecule)>
2

> <ADME H-bond Acceptors (Whole Molecule)>
3

> <ADME Rotatable Bonds (Whole Molecule)>
1

> <SS>
BENZODIAZEPINE; ARYLCHLORIDE; LACTAM; IMIDATE; AMINOALCOHOL; BH-LINKED-CC

> <MOLWEIGHT>
321.165009

> <CAS>
846-49-1

> <ADME Violations (Whole Molecule)>
0.000000

> <ADME logP (Whole Molecule)>
3.317700

> <CC_FORMULA>
C(15)H(10)N(2)O(2)Cl(2)

> <MOLNAME>
LORAZEPAM

> <RC>
02& 02- 020 03& 031 033 068 07- 072 08& 084 088 093 094 10- 108 130 163 164 17&

> <Ames Mutagenicity (v. 3.1) Model Probability of mutagenicity>
1.000000

> <CC_WEIGHT>
321.000000

> <UPDCODE>
90.1-96.3

> <ADME Weight (Whole Molecule)>
321.170105

> <RN>
LORAZEPAM

> <COMBPREP>
SOMNIUM                                MEDICHEMIE          CH ( + diphenhydramin

> <TP>
8133-CB RO-7-8408 WY-4036

> <Name (Whole Molecule)>
LORAZEPAM

> <AE>
ENCEPHALOPATHY: amnesia; ataxia; EYE-DISEASE: blurred-vision; diplopia; visual-d
depression; hallucinations; impaired-concentration; neurosis; psychosis; ORL-DIS
retention; SKIN-DISEASE: injection-site-erythema; rash; VASCULAR-DISEASE: hypert
tion; drowsiness; elevated-lactate-dehydrogenase; headache; injection-site-pain;

> <OTHER>
ACIVAN ALBIUM AMPARAX ANSIOTEX APO-LORAZEM CALMOGENOL CENTREX DIAFOR GROSANEURON

> <MF>
C15 H10 Cl2 N2 O2

> <APP>
LORAZEPAM                              BAN LORAZEPAM

> <Rat Oral LD50 (v. 3.1) Model OPS confidence>
High

> <IA>
Alcohol; anticonvulsants; antidepressants; barbiturates; CNS-depressants; MAO-in

> <PT>
PSYCHOSEDATIVES; TRANQUILIZERS

> <TRADE>
AZEPAM                                 PINEWOOD            IE   ABBLORAZ
                           MURRAY              US ALZAPAM
             ESSEX               AR APO-LORAZEPAM                          APOTE
YERST              AU ATIVAN                                 WYETH
     CA ATIVAN                                 WYETH               DO ATIVAN
                                 WYETH               HN ATIVAN
                   WYETH               KE ATIVAN
     WYETH               NG ATIVAN                                 WYETH
           QA ATIVAN                                 WYETH               SA ATIV
ATIVAN                                 WYETH               VE ATIVAN
                         WYETH-AYERST        MX

> <PW>
Chronic-pulmonary-insufficiency; elderly; children; pregnancy; labor; hepatopath
 physical-dependence; risk of dependence increases the higher the dose and the l
otor-skills; iv-admin should be slow; monitor liver-function with prolonged-admi
ntilation should be available; premature ambulation following parenteral-admin m

> <CI>
Benzodiazepine-hypersensitivity; lactation; ia-admin; acute-narrow-angle-glaucom
primary-depression.

> <VAMP BUILD>
    31
Build 31

> <ParaSurf OPTIONS>
WRAP  SPHH  MULTI    0.2000E-04

> <MOLECULAR_CENTERS>
Spherical harmonic center =    -0.329769   -0.596344    0.071314
Center of gravity         =    -0.329769   -0.596344    0.071314

> <SPHERICAL_HARMONIC_SURFACE>
Order =   15
    0 17.1497
    1 -0.4298  0.5739 -0.2466
    2 -1.7253  1.0203 -1.1155  0.5796  0.1714
    3 -0.0063 -0.3721 -0.2227 -0.3815 -0.7280 -2.1253 -1.6022
    4 -0.3046  0.9097  0.8015  0.2326 -0.4418  0.2218 -0.0827 -0.3858  0.1921
    5  0.3328 -0.1512  0.1738 -0.2233 -0.2794 -0.2925 -0.0965 -0.0182  0.2687 -0.1800
       0.1953
    6  0.0180 -0.3179 -0.1470 -0.0823 -0.0939 -0.3090 -0.0664 -0.0005 -0.0191 -0.0898
      -0.1046  0.0144  0.0279
    7  0.0023 -0.1928  0.0540 -0.0655 -0.0619 -0.0576 -0.0642  0.0776  0.0378 -0.0436
       0.0718 -0.0786 -0.0279  0.0834  0.0352
    8  0.1401  0.0082 -0.0813 -0.0213  0.0359  0.0290  0.0066 -0.0618 -0.0425  0.0541
      -0.0270  0.0568 -0.0073 -0.0157  0.0031  0.0969  0.0155
    9  0.0189 -0.0424  0.1006 -0.0890  0.0259 -0.0906 -0.0861  0.0534 -0.0781  0.0452
       0.0216 -0.0512 -0.0144 -0.0246  0.1348  0.0628  0.0056  0.0951 -0.1043
   10  0.0296 -0.0325 -0.0845 -0.0405 -0.1624  0.0737 -0.0290  0.0222 -0.0207 -0.0641
      -0.0193 -0.0229 -0.0292  0.1068  0.0125 -0.0501 -0.0247 -0.0035  0.0800  0.0389
       0.0067
   11  0.0423  0.0018 -0.0856  0.0566 -0.0077 -0.0372 -0.0239  0.0116 -0.0201 -0.0464
      -0.0044  0.0066  0.0487 -0.0059  0.0181 -0.0110 -0.0528 -0.0409 -0.0422 -0.0303
       0.0067 -0.0438  0.0248
   12 -0.0138  0.0529 -0.0137  0.0359  0.0155  0.0422 -0.0097 -0.0257  0.0196  0.0039
       0.0119 -0.0167  0.0187 -0.0319  0.0315  0.0194 -0.0217  0.0367  0.0707  0.0848
       0.0091 -0.0070  0.0174 -0.0295 -0.0104
   13 -0.0084 -0.0075  0.0132  0.0136 -0.0267 -0.0487 -0.0140 -0.0175  0.0312  0.0111
      -0.0085  0.0139  0.0192 -0.0069  0.0363  0.0008  0.0128  0.0155  0.0345 -0.0192
       0.0188  0.0355  0.0270  0.0446  0.0268  0.0017  0.0182
   14  0.0364 -0.0127 -0.0212  0.0169 -0.0025 -0.0120  0.0174  0.0414 -0.0006  0.0045
       0.0354  0.0054  0.0211  0.0010 -0.0126 -0.0332 -0.0039 -0.0221 -0.0027  0.0001
       0.0174  0.0300 -0.0350 -0.0328  0.0256 -0.0160 -0.0159 -0.0409 -0.0031
   15 -0.0037  0.0068 -0.0085 -0.0124  0.0329  0.0167  0.0281  0.0021  0.0255 -0.0040
       0.0360  0.0197 -0.0136  0.0230 -0.0016  0.0258 -0.0003 -0.0052 -0.0037 -0.0102
      -0.0051 -0.0145  0.0436  0.0256 -0.0008  0.0167  0.0068 -0.0536 -0.0340 -0.0036
       0.0270
RMSDs:
    0  1.61422126
    1  1.59667342
    2  1.32710385
    3  0.72772057
    4  0.43848113
    5  0.34203863
    6  0.27548190
    7  0.25092507
    8  0.23302474
    9  0.20296793
   10  0.17773560
   11  0.16331563
   12  0.15434609
   13  0.14763567
   14  0.14110488
   15  0.13322765

> <SPHERICAL_HARMONIC_VOLUME>
Order =   15
    0  473.5949
    1  476.3807
    2  503.3112
    3  542.8075
    4  553.4502
    5  556.0993
    6  557.1793
    7  557.6313
    8  557.8510
    9  558.2202
   10  558.5674
   11  558.6998
   12  558.7996
   13  558.8510
   14  558.8983
   15  558.9448

> <SPHERICAL_HARMONIC_MEP>
  0
     -9.8175412
  1
    -11.2692244     -3.5263866    -18.8965271
  2
    -10.4684160    -12.5041996     -1.5598988    -10.4545056     -1.5236276
  3
      1.3257348     -2.7853768     -2.4220665      6.0688641      3.1345709
     -2.5040765     -6.9558351
  4
     -1.4556106      2.7409296     10.9911572      3.7549364      0.0042261
      6.6400227      4.0692037     -5.6640485     -2.4654496
  5
      1.3766338     -5.5728776      4.2370339      0.5404123     -2.1399696
      1.9143073     -4.0680546     -0.7767243     -2.9514312     -2.0845554
     -1.8329267
  6
     -1.3945092     -4.8208985     -1.7401241      3.2893978      1.8749615
      0.5793153     -0.1844599      0.5378122      0.5324754     -5.8990591
     -2.8140531      0.8895833     -0.1417272
  7
      0.4110238     -2.6169121      0.9209149     -4.5048176     -3.9894845
     -4.0391396      2.2963995      2.7947913      0.6016545     -0.7251788
      1.2809598     -1.1147087      1.3187705      1.6687852      0.1115171
  8
      0.8289348     -1.4614627     -0.5084256     -1.5525558      1.2371811
      2.4614071     -0.3071698     -0.1661674     -0.9210311     -1.7173483
     -0.7039188      1.2925865     -1.2860503     -1.3577653     -0.0361386
      2.0989548     -0.3116769
  9
     -0.1635841     -0.4247426      0.2737107     -0.4361281      1.1225263
     -0.7362311     -2.0387055      1.3309526      1.7333431     -0.4090409
      2.0422831     -0.4587096      0.4766528      2.3221776      2.4016038
     -0.1183976     -0.1160352      1.3575395     -0.6372618
 10
      0.2660166     -0.3085776     -0.2778356     -1.6935200     -0.9614329
      0.1338045      0.8106444      0.7381575     -0.5645591     -0.7866286
      0.0780867     -1.2410903     -0.2505732      0.0970766     -1.1828823
     -1.8781668     -1.2331232      0.3045095      0.3044532      0.6897034
      0.3203017
 11
      0.4568531     -0.5942877     -0.8962114     -0.5261866      0.1084403
      0.3507910     -0.1557044     -0.6729584      0.0144545      0.2763926
      0.1534761     -0.0012213      0.4244437      0.0377674     -0.9021149
     -0.2474532      0.8172095     -0.4499595     -0.8316408     -0.2912261
     -0.4597898      0.9825921     -0.2737833
 12
      0.2476524      0.4524185     -0.3095473     -0.1058781     -0.4791422
     -0.6713020     -1.0151131     -0.3187417     -0.0689720     -0.0796116
     -0.5116978      0.5016030      0.1543787     -0.3561772     -0.2203886
      0.7796232     -0.2834681     -0.0527549      0.1501479      0.5455239
      0.3461166      0.0493737      0.6228839      0.4229930     -0.2760188
 13
      0.2815033      0.2095201      0.1430299     -0.2664677     -0.6657238
     -0.0027923     -0.0541727     -0.3465348     -0.3179110     -0.0560569
     -0.2723822      0.1084293      0.5053745     -0.4385703      0.4673315
     -0.3574584      0.3154988      0.0532823      0.1195967      0.0775730
      0.5086506      0.0169793     -0.0953597      0.5453944      0.5585433
     -0.0661192     -0.1397036
 14
      0.2824092     -0.0075711      0.2373031      0.4063438     -0.4200570
     -0.2255318      0.4834308      0.2732891     -0.0209634      0.0906275
      0.4022529     -0.0374831      0.1478045     -0.3124918     -0.3354575
     -0.3701536     -0.3433937     -0.1602816     -0.0395847      0.2360498
      0.4642430      0.8375178     -0.0246773     -0.1901271      0.7339322
      0.1027042      0.0587380     -0.2199954     -0.1333535
 15
     -0.0180577      0.0416089     -0.0390802      0.1209904      0.3210946
     -0.3117790     -0.2769132      0.2777838     -0.1841625      0.0370352
      0.1521909     -0.1579940     -0.2671023      0.1692083     -0.2245235
     -0.1394349      0.0236921      0.0056620     -0.1367886      0.0672122
      0.1202895     -0.4027870      0.1568887      0.1229873     -0.3818426
      0.5041481      0.3924840     -0.3595599      0.0161390     -0.0355075
     -0.0538149
 16
      0.0383775     -0.0991544      0.1252613     -0.1798772      0.1477404
      0.2754636     -0.4583376      0.1715291      0.4114336      0.0520377
      0.1638698     -0.2267026      0.0270518     -0.1904419     -0.3469619
     -0.1271158      0.1679558      0.0200883      0.0195197      0.0031463
     -0.1733101     -0.0295328      0.0345170      0.0210610      0.0285676
     -0.2958219      0.2031857      0.1942040      0.0020077     -0.0672550
      0.1375356     -0.2012792      0.0529717
 17
      0.1287348     -0.1031455      0.1997614      0.0571337     -0.1869297
     -0.0387869      0.2403946     -0.1892919     -0.1557952     -0.4199511
      0.0940094      0.2002802     -0.2304276     -0.1350704     -0.0588266
      0.0986490      0.0321838     -0.0950501      0.0884739      0.1504205
      0.1289509      0.0896594      0.1666620      0.0617249     -0.1882416
     -0.0258643      0.1116440      0.4615901      0.2399280     -0.0740027
      0.1538871      0.3099782     -0.0826441     -0.0439204     -0.0267121
 18
     -0.0119197     -0.0970836      0.0379825      0.2093687      0.1467614
     -0.2722974     -0.1298553      0.1401131     -0.1859235      0.0037192
      0.0453564     -0.0007477     -0.0734782      0.0930916      0.2374098
     -0.0049940     -0.0116855     -0.0760669     -0.0235719      0.0037431
     -0.0971871      0.0628696      0.1584012      0.0829269      0.1651711
      0.1910042      0.1097430      0.0929931      0.0682726      0.1057535
      0.0423251      0.2849998      0.2612716      0.0295857     -0.1501824
      0.0010008      0.0380737
 19
      0.0497383     -0.1023084     -0.0420691      0.1026162      0.1481355
      0.1781192     -0.0528735      0.1219930      0.3512245      0.0163726
      0.0618984      0.0215773      0.1319883      0.1284359      0.0497186
     -0.0676027     -0.0174720      0.1685614     -0.1555082     -0.1831911
     -0.0234862      0.0791885     -0.0399413      0.1171508      0.0192035
     -0.0496630     -0.0228447     -0.2073310      0.0285932      0.2794470
      0.0931516     -0.1634024      0.0714083      0.1994085     -0.1825259
      0.0052910     -0.0657013      0.0070673      0.0819244
 20
      0.0077063     -0.1095015     -0.0935870      0.0733091     -0.0633177
      0.2199300      0.3025264     -0.0490432      0.0482059      0.2103946
      0.0288640      0.0756038      0.1137561      0.0663971      0.1587511
      0.1031820      0.0511764     -0.0635656     -0.2298379     -0.1372509
      0.2354329     -0.0044410     -0.0033956     -0.1097268     -0.0995833
     -0.0626481     -0.1022337      0.0683122      0.1102262      0.0522520
      0.0663566      0.1689075      0.0076550      0.1446640      0.1697765
     -0.0675051     -0.1762205     -0.0018275     -0.0232014      0.0650294
      0.0016427
RMSDs:
       0         13.14061227
       1         10.58383871
       2          8.97934956
       3          8.37789647
       4          6.15851166
       5          5.35622251
       6          4.30216597
       7          3.09080815
       8          2.57626446
       9          2.01587235
      10          1.65974476
      11          1.44086756
      12          1.25235754
      13          1.09922954
      14          0.89371109
      15          0.78164228
      16          0.70993399
      17          0.61578593
      18          0.53498783
      19          0.45939376
      20          0.36874196

> <SPHERICAL_HARMONIC_IEL>
  0
   1603.1702321
  1
     24.8741304    106.9567994    -40.9017178
  2
    -25.5042127      3.9627257    -15.9667487     35.7004332    -28.8395978
  3
    -12.9338870     32.9437713     61.9636475    -25.6658362     31.8851708
     66.6777521     -1.5813138
  4
     -2.5259992    -33.7822136    -53.0801187    -27.1793788     12.7364065
    -16.2470523      6.6149716      4.6041890    -30.4276229
  5
    -45.5008640     -4.6440892     21.2499502     -0.6149960     12.1079207
     11.5558675     -9.4900145     27.5872089     -9.1610501      8.1260205
    -13.4584717
  6
     -3.9342444     -8.2332624      3.0299150     20.4212110     16.0005287
     38.9920853      9.7848661     -3.4927062    -20.4421378    -15.8530404
      5.7555292    -14.7781302     -2.6207602
  7
     -3.3436291     -2.1873820      6.1947388    -27.9696107      1.0922458
     -1.1923085     27.7997575    -11.9341894     17.5931294     10.6485568
     -4.8480458      5.1627381      8.3816315     -2.8806911     -5.9603359
  8
    -12.2824153     -6.1675579     29.5218037     -0.7058272     -4.1328362
     17.1011997     -9.6254139      3.2046944     -7.6216665    -21.7745102
    -12.0331584     -2.0995661    -13.3065085     -2.9127445      8.6199658
      4.6961763     -4.5627591
  9
      4.3125407     -5.1506673     -2.3334615      1.8698130     -2.6003398
      1.3172981     -3.2251038     -1.5196043      8.9807733     -9.3095062
      3.8188660     -2.5174001      6.2611326      8.0687998      8.7174044
     -0.8881858     -9.8416549     -3.6939221     10.7156125
 10
     -0.4701034     -3.6468337     12.3307008    -10.3799883      5.3833499
     -8.4365358      8.5064122      6.3998675     -9.1251140      4.6962326
      3.0143675     -2.5063566      2.9066547      2.6064135     -3.4094479
     -9.8841368      2.8813851     -1.6522855     -8.3334793      8.7165334
     -3.8579969
 11
     -2.7248093      1.6539726     10.5083115      1.7928096      9.0223394
      8.9957693      3.5111770     -3.1532161      6.5429588     11.0587337
      6.4329149     -7.8458485      0.5119775     -1.8809774     -4.8648190
      5.6640160     20.2679393      4.9262741     -1.2715977      9.8317835
     -2.1547641     10.5530544     -5.5476476
 12
      6.2651971     -3.9338843      2.8808914     -0.9037959     -7.7521508
    -12.3135038     -2.6440521      8.0266029     -1.0200428      2.7748396
     -1.2959754      0.2809048     -5.6848604      3.0951701     -3.8908418
     -1.6341637     -3.2213857     -3.9192000     -2.2131819     -8.0691554
     11.6059865      6.8935899     -2.3834824      5.8701273      2.7298366
 13
      1.5004697      1.6712426     -2.4558782      3.3624554     -4.8522038
     -1.4159933      4.9114318      3.6945047     -4.9101492     -5.6220683
      2.5333863     -0.3008221     -1.4609716     -1.7861046     -0.6367506
     -5.4395953      3.3267783     -3.8596038     -1.7942869      2.0814467
      1.9884176     -3.1270992     -1.0836509     -5.7150612      1.7358501
      5.5909566     -7.5841244
 14
     -4.5027913      2.7891285      1.0811219      4.9723608      4.7084639
      1.9376038      2.1155544      1.9701734      3.3034683      2.2139825
      2.0556865     -1.3753200     -5.0467605     -6.8596554     -0.6015277
      0.7333632     -5.6615331      1.6312463     -5.4950186      2.0779282
      1.6135654     -0.3491827      1.9764076      4.6778946     -0.6862579
     -1.5660705      3.6472597      4.8875240     -5.0520843
 15
      0.6003115      0.1058032      1.9761147      3.6572558     -6.6033248
     -2.0965945     -5.3320312     -2.4093142     -7.2534755     -2.3874139
     -3.7693867     -2.9517996      2.6225051      0.3229068     -4.3593629
     -7.1682285      0.0365360      0.4676468      2.2433352      4.5521773
      1.4840546      3.6766896     -0.4707086      3.3314488     -2.0060614
      3.5409251      5.4917288      0.8404812      5.0781312     -2.0128005
     -2.6203025
 16
      3.4549007     -1.2778248      0.4767569      0.7603577      1.1401708
     -1.9637012     -2.0033531      5.2907199      4.0734537      1.7101626
      3.1654997      2.4974005     -0.0396582     -2.6543544     -0.6870464
      0.7190900      0.8179571      2.8526658     -1.8274387     -2.7568209
      0.1993075      0.2877738      0.5028369     -2.3869430      1.8907719
     -2.9254239     -1.8663540      0.3249684      1.3841424     -0.7453922
      2.9617254     -0.4261620     -4.7048969
 17
     -2.3743451      0.4685489      1.8981590      0.3088643      1.4575383
      1.4340787     -1.4896015      1.1584096     -1.8358520     -3.7290983
      2.2490028      2.3674703      0.2187305     -0.2403435      1.9039566
      1.1710655     -2.6612559     -0.0228677     -2.0068969      1.3804782
     -0.4122740     -3.2663205     -0.1889814      0.5917461     -6.3901572
      1.3020410      0.2859965      2.5821311      1.1324363     -1.4051202
      2.5502549     -1.9241884      3.2801053     -1.5540714      0.7703557
 18
      1.9594008     -0.5155033      2.8301468     -1.0995936      1.0922955
     -1.4075900     -0.5335285      0.0529372     -1.7008210     -0.3637305
     -0.7148807      0.4970912     -0.5224146      0.7908482     -1.6739895
     -0.0478182     -1.2749773      0.1645782      2.4260080      1.3540295
     -1.9370768     -2.0567501     -0.2098609     -1.8001150      0.2446770
     -0.9761181      2.2522489     -0.5821476     -1.3665614      3.5913418
     -0.2711110      1.2885269      1.0659670      0.6967248      1.8731774
     -3.1347750      0.1104614
 19
      2.4045182     -1.2365823      0.7150135      0.0182455      2.4562055
     -0.2058169     -2.7265461      2.5619754      2.7294106      0.5870513
     -1.6626201     -2.6027325     -1.0189009     -2.3433836     -0.8325003
     -1.7136281      1.2709725      0.9398806      1.3660080      0.4437016
      0.2449138      0.1024472     -0.0888702     -1.2756947     -0.1120415
     -0.6613570     -3.7428382     -2.5720380      1.2320464      1.5014113
     -0.0596001     -5.7615723      2.0250201      1.6058576      2.5166614
      1.0783386     -1.3150328     -1.7256033     -2.3773354
 20
      1.2281093     -0.7580067      1.6568797     -0.4865925      0.6790678
     -0.7646200      0.9040862     -1.7750660     -1.3009609     -1.5780223
      0.6162521      1.2516705      1.9308301     -0.7471077     -0.2306780
      2.1924092      1.7044893     -0.0714093     -1.9349558     -0.7903320
      1.4252174      2.3668620     -1.2091379     -0.6661630     -0.5330449
     -2.2587339     -0.9080666      0.3271118      3.8988750      1.6876103
     -1.1093342      1.6125194     -0.9392942      1.4291749      3.7907032
      0.8985734     -0.7901337     -0.6362576     -2.8750346     -0.4966875
     -0.2573150
RMSDs:
       0         67.43168209
       1         56.50222641
       2         54.01094738
       3         46.43558101
       4         40.91374669
       5         36.33886448
       6         31.83719974
       7         27.80990406
       8         23.62527073
       9         22.25043900
      10         20.28713558
      11         17.16234295
      12         14.89005835
      13         13.61596278
      14         12.20429767
      15         10.41905990
      16          9.64487405
      17          8.73200266
      18          8.39712576
      19          7.42651962
      20          6.91927437

> <SPHERICAL_HARMONIC_EA>
  0
   -275.2549905
  1
     -3.5770876    -39.9700119      4.1984238
  2
     11.5275393    -17.6251370     -0.1121521      5.5251072     24.1561882
  3
     -1.5866551    -26.9023448     -6.3220470      8.9595685     -8.3533280
      6.2251759     26.2276551
  4
     11.7477584     -9.7135674     -3.0102398      2.9746081      3.0156901
      8.8698821     14.9745358     -6.1025679      4.7933295
  5
      3.9374421    -10.5368010     -3.9208099      0.4720443      5.7194714
     13.2225684    -13.1823155     -7.3471617      7.9249659     12.8774454
      8.6674986
  6
      2.3915917    -10.3216633     -3.1801165      5.4580826      4.0844418
      7.5077118     -7.0513769      4.6062928      0.1812476     -9.1000572
     -3.9120428     -4.7919552      1.6885904
  7
      4.0950684      1.5180970     -2.5893473     -4.0637730     -1.0842915
     -2.5124848      5.2059457      7.4465005     -2.1860791     -1.0773477
      3.5371143     -1.5852690      7.7168513      3.8662870      1.0507555
  8
      0.5298397     -4.7069811     -1.5135339      0.5784768     -1.7818215
      0.8107216     -4.4270508      3.6185689     -0.4110192     -0.6311626
      0.1121150     -2.1538602     -2.7450098      0.1431165      3.4997140
      7.2267633      1.5033804
  9
     -0.3126227      0.9133014     -5.1021517      1.9932747      0.0310603
     -0.5965610     -0.8707429      1.4273721      1.5460201      0.1158629
     -0.5358274     -1.1135403      1.4292192      1.3731459      0.9165992
     -1.0640359     -0.3454075     -3.7667640      2.1674637
 10
      0.2614641     -2.2449779      0.2362436      5.1583594      4.2916504
      0.2269785     -0.1680786      0.6991083      4.4868946      6.8330409
      0.3493544     -0.2306684     -2.7894143      0.7525259      2.2393674
     -0.9409419     -1.7361240     -0.7430662      5.4086494      3.8793771
      0.7804802
 11
     -0.6881412     -0.6986676     -2.0046093     -0.2256218     -3.5439115
     -0.7534031     -0.6305206     -0.6781785      1.1894250     -3.8225271
      2.8663228     -0.7563732      2.9619651     -1.8222011     -2.4684415
     -2.0424978     -0.9531321     -0.3283552      0.7723931      2.7022304
      2.3270470     -1.2708784      2.6422523
 12
     -0.2435146     -0.5367121     -1.8734309      1.2576302     -0.6175967
      1.5211898     -0.0313981     -0.4170220     -0.4059081      2.4601680
      0.2428142      0.3421060     -2.7856223     -1.9358911     -1.1144950
      0.2457468     -0.3674652      1.6646467      0.7315255     -0.0972155
      1.2502062      1.4264651      2.8107054      0.0634762      0.7725958
 13
      1.1854124     -3.0406632     -2.4416110      0.0310960      0.3724667
     -0.3272016     -3.1152942     -1.9238960      1.4554345      0.2225089
     -2.6045579     -0.7907461      0.9004786     -3.4530692      1.5478057
     -1.9733080      0.2551170      0.2060272     -0.2180696     -2.0728680
     -2.3133122      0.7465262      0.7693646     -1.1614709      3.8489589
     -0.2394391      1.7289175
 14
     -0.7111159      0.1717531     -0.9708030     -2.3612187     -2.1590374
      1.1499724      2.3355524      3.4273346      2.8942779     -1.3786126
     -0.3046044     -0.0346313      0.1390581     -0.4301234     -1.5194936
     -1.1838200     -1.0938554      1.9400047     -0.5022513      0.5657815
      0.4066302      0.1914288     -0.7575172      0.7552455     -0.5564416
     -0.4946274     -1.0464367     -0.0002670      0.8703813
 15
      1.0676419     -1.9609014     -0.7914304      1.1557920      1.1861445
      1.2283325     -0.9829078     -0.0143787     -1.2077315      1.1765704
      1.3615200     -0.1405501     -0.6686284      0.1378555      0.4882950
     -0.1020491      0.6165237     -1.7338572     -1.3128939      0.8996163
      1.5061942     -0.4486085     -1.3954410      0.5255229     -0.3548600
      0.5934270     -0.2529112      0.3540894      1.8376365     -1.4784059
      0.1848680
 16
      0.1064815     -0.3268556     -0.3904010     -1.1152394     -2.2132239
     -2.3925774     -1.6352370      0.4835820      0.8611261     -0.6598136
     -1.0074771     -1.0779382     -0.6166333      1.1698820      0.2914507
     -1.0012645     -1.7589859     -0.3377044     -0.1955141     -0.1614168
     -0.5376849     -0.1212948      1.4413857     -0.0983056     -0.3218861
     -1.3760887      0.3588491      1.9826384     -0.3845649     -0.6636841
     -0.5177166     -0.0949907      0.7225636
 17
      0.4262181      0.0142467     -0.1211354     -0.9399842     -0.4694285
      0.5096107      0.9010409      1.2879987      1.4922755     -0.6808885
      0.1450093     -0.2434373      0.1062915     -0.6224643     -1.1668625
     -0.5522448     -0.3532762     -0.8723742      0.3362382     -1.4273472
      0.0024425     -0.5035258     -0.9157917     -0.7896085     -0.2708406
      0.3298344     -1.3682512     -0.3484760     -0.7765862     -1.3487962
     -2.4622670     -0.0615025      0.3054869      0.0694089     -0.1484453
 18
      0.2999914      0.1782143     -1.0821530      1.2030713      0.1287966
      1.1731903      1.1678061      0.6084764      0.6681539      0.5097509
     -0.4082915      0.1992086      0.6206824      0.2065529      0.0585172
      0.4255942     -0.3309148     -1.7787775     -1.3575532     -0.7222999
     -0.5913517     -0.1292842     -0.8874282      1.0540943      0.4470128
      0.2722432      1.2799203      1.4257824      0.3604322      0.8044328
      0.2163938     -0.0172418     -1.8026053      0.0540606      0.1927738
     -0.8211447      0.2971105
 19
     -0.0613641     -0.1967314      0.8127303      0.8289964     -0.2653562
     -0.7251775     -0.2226263     -0.2137830      0.5788314     -0.1229922
     -0.1782007      0.3530215     -0.0339918      0.0652209     -0.3635852
     -0.6100454     -1.2509078      0.2733863     -1.0821231     -0.4403022
      0.4703495      0.3383477      0.7866878      0.6451495      0.5078360
     -0.3939262      0.0901923     -0.5889432     -0.7837675     -0.9889095
     -0.1534486      0.6016603      1.1371246      0.9346275     -0.8685521
     -0.7760307     -0.1037034      0.0449442     -0.0731675
 20
      0.0321846      0.8370876     -0.5082795      1.1552719      0.1773573
      1.0454702      0.1784613     -0.9611597      0.7064400     -0.0458094
     -0.2733816     -0.2944131      0.2490307      0.0352669      0.1582803
     -0.1414579      0.5040904     -0.5077446     -0.4040673     -0.8469168
      1.0672690     -0.0810613      0.3385129      0.2548129     -0.0430361
      0.7730928      0.6204287     -0.6237713     -0.3611700     -0.0074458
      1.1831401      0.3310081     -0.9274502     -0.0030980     -0.5230859
     -0.5028888     -0.0291613      0.8085772      0.4293496     -0.4498084
      0.2720655
RMSDs:
       0         27.03131780
       1         22.48021831
       2         20.22950099
       3         16.11601673
       4         14.26929423
       5         11.78454938
       6         10.11784731
       7          9.15252121
       8          8.58105306
       9          8.27054034
      10          7.08641222
      11          6.30674528
      12          5.95024881
      13          5.25269316
      14          4.73728538
      15          4.40771103
      16          4.08786402
      17          3.73464610
      18          3.32762373
      19          3.08129468
      20          2.83917224

> <SPHERICAL_HARMONIC_ALPHA(L)>
  0
      1.1355747
  1
     -0.0216222     -0.1117495      0.0374150
  2
      0.0468669     -0.0063127      0.0229023      0.0012037      0.0573296
  3
      0.0061617     -0.0449711     -0.0295610      0.0158617     -0.0191044
     -0.0349468      0.0478228
  4
      0.0263636     -0.0100912      0.0297761      0.0147366     -0.0066843
      0.0336387      0.0264490     -0.0327060      0.0061308
  5
      0.0215538     -0.0168657     -0.0164229     -0.0037143     -0.0001114
      0.0250795     -0.0211860     -0.0269897      0.0126496      0.0159563
      0.0162373
  6
      0.0039434     -0.0124434     -0.0068894      0.0117653      0.0030987
      0.0002627     -0.0190106      0.0127852      0.0215133     -0.0098974
     -0.0163756     -0.0024466     -0.0007054
  7
      0.0057477      0.0057780     -0.0054285      0.0016202     -0.0012068
     -0.0046103     -0.0001395      0.0108628     -0.0184427     -0.0086647
      0.0065262     -0.0022209      0.0005439      0.0028450      0.0011308
  8
     -0.0021188      0.0002575     -0.0103621     -0.0005970     -0.0040494
     -0.0015213      0.0026866      0.0043823     -0.0019023      0.0103955
      0.0022239      0.0043259      0.0035717      0.0065139     -0.0011383
      0.0091632      0.0044619
  9
     -0.0004788      0.0079629     -0.0100130      0.0039046     -0.0008970
      0.0059681     -0.0008220     -0.0045597      0.0001162      0.0003593
      0.0001102     -0.0027306     -0.0028394     -0.0023499     -0.0035400
     -0.0021454     -0.0029664     -0.0040532      0.0029211
 10
     -0.0016557      0.0059499     -0.0052212      0.0053748      0.0048542
      0.0029001     -0.0026094     -0.0012490      0.0060943      0.0005225
     -0.0005372     -0.0022573     -0.0015241     -0.0027316      0.0030819
      0.0105165     -0.0000820     -0.0009796      0.0034821     -0.0005804
      0.0047640
 11
     -0.0020891      0.0035921     -0.0033837     -0.0019303     -0.0055548
     -0.0011287      0.0002189      0.0008093      0.0008845     -0.0019850
     -0.0002330     -0.0021696     -0.0001375      0.0028440      0.0033072
     -0.0028374     -0.0049284     -0.0005282     -0.0018979      0.0002529
      0.0047203     -0.0054160      0.0027739
 12
     -0.0009886      0.0031079     -0.0021914     -0.0027674      0.0007153
      0.0029492     -0.0005937     -0.0063973      0.0001141     -0.0008709
     -0.0024333      0.0010073      0.0021148     -0.0012139     -0.0011356
      0.0007023      0.0017141     -0.0011208     -0.0005786      0.0028514
     -0.0037247     -0.0025280      0.0019598     -0.0039582      0.0035277
 13
     -0.0016892     -0.0008243      0.0017458     -0.0008919      0.0014079
     -0.0004379     -0.0003331      0.0007314      0.0038411      0.0021251
     -0.0005313      0.0009834      0.0007590     -0.0003282      0.0008740
     -0.0008245     -0.0000867     -0.0015015      0.0032508      0.0010991
      0.0010750      0.0043009      0.0020604      0.0004473      0.0020086
     -0.0026714      0.0021392
 14
     -0.0011993      0.0012028      0.0011981     -0.0039763     -0.0029165
     -0.0003576      0.0020858     -0.0020188     -0.0012351     -0.0024080
      0.0005760      0.0009860      0.0011119     -0.0016140     -0.0035599
      0.0001039      0.0000921      0.0002294      0.0023446     -0.0015859
      0.0012087      0.0018418     -0.0008258     -0.0009324     -0.0025879
      0.0028904     -0.0007981     -0.0012300      0.0006031
 15
     -0.0017162      0.0003522      0.0011375      0.0001543      0.0010354
      0.0009114      0.0024598     -0.0008086      0.0031685      0.0038124
      0.0009856     -0.0003814     -0.0024575     -0.0007518     -0.0010275
      0.0017012      0.0006322     -0.0000146     -0.0027216     -0.0004574
      0.0021253      0.0002794     -0.0005563     -0.0019466     -0.0000102
      0.0006343     -0.0012335      0.0021999     -0.0025317     -0.0006325
      0.0014650
 16
     -0.0015400      0.0008866      0.0006689      0.0005362     -0.0012807
      0.0007898      0.0011822     -0.0028099     -0.0010969     -0.0002716
      0.0008004     -0.0003614     -0.0006495      0.0008554     -0.0000887
     -0.0012978      0.0000370     -0.0019344      0.0011630      0.0025148
     -0.0007987     -0.0013271      0.0003070     -0.0010121      0.0001067
      0.0007089      0.0012062      0.0009094     -0.0020457      0.0033660
     -0.0023341      0.0000043     -0.0000828
 17
     -0.0016876      0.0009889     -0.0010554      0.0000953     -0.0026008
     -0.0007314      0.0008277     -0.0031584      0.0003796      0.0012690
     -0.0020019     -0.0005758     -0.0005562      0.0012446      0.0004201
      0.0000158      0.0003010      0.0006190      0.0017123     -0.0003537
     -0.0009404      0.0028633      0.0004994     -0.0002067      0.0006811
     -0.0000367     -0.0010296     -0.0014006      0.0001111     -0.0009725
     -0.0014709      0.0008851     -0.0021411      0.0009678     -0.0000911
 18
     -0.0014942      0.0018649     -0.0006196      0.0024980     -0.0002906
     -0.0010875      0.0017920      0.0010389      0.0004023     -0.0003436
     -0.0008523      0.0014494      0.0005386     -0.0003670     -0.0007151
     -0.0009137      0.0009830      0.0006783      0.0000346     -0.0001810
      0.0004569      0.0003268     -0.0000982     -0.0006486      0.0003193
     -0.0012066     -0.0006107      0.0009390      0.0025918      0.0015025
     -0.0018580     -0.0004712      0.0014044      0.0010772     -0.0013940
     -0.0006027     -0.0000189
 19
     -0.0008712      0.0015616     -0.0006989      0.0006234     -0.0000350
     -0.0007058      0.0004183     -0.0004205     -0.0010384     -0.0002517
      0.0005601      0.0012700     -0.0006835     -0.0010613      0.0014701
      0.0011228      0.0012823     -0.0014882     -0.0010255      0.0006314
      0.0012170     -0.0005679     -0.0018230     -0.0006336     -0.0006317
      0.0004375      0.0010308      0.0023552      0.0020130     -0.0011500
      0.0007448      0.0006443      0.0008267      0.0008198      0.0015360
     -0.0005990     -0.0004769      0.0000397     -0.0008649
 20
     -0.0008810      0.0004620     -0.0009782      0.0000147      0.0005654
     -0.0017730      0.0002154      0.0000313     -0.0002258      0.0010340
     -0.0002360     -0.0009519     -0.0003179      0.0001527      0.0015177
     -0.0004678     -0.0011256      0.0003356      0.0000487     -0.0007396
     -0.0005927     -0.0002524      0.0006853     -0.0012556     -0.0002789
      0.0006127     -0.0000054     -0.0012648     -0.0021189      0.0000118
      0.0000155     -0.0009557     -0.0009515     -0.0011534     -0.0006742
     -0.0000726      0.0003401     -0.0010448     -0.0010778     -0.0004873
     -0.0007116
RMSDs:
       0          0.06277404
       1          0.04670247
       2          0.04046983
       3          0.03172750
       4          0.02455658
       5          0.01941121
       6          0.01562781
       7          0.01368799
       8          0.01193068
       9          0.01073598
      10          0.00924218
      11          0.00836883
      12          0.00758120
      13          0.00715813
      14          0.00659926
      15          0.00607073
      16          0.00560164
      17          0.00516191
      18          0.00468694
      19          0.00431150
      20          0.00407567

> <ParaSurf DESCRIPTORS>
Molecular     4.6904    0.0084   31.8804  321.1622    0.8138    403.20    558.94
MEP            32.60    -43.18      7.04    -13.14     -3.73     75.78     28.14
              107.48  135.6206    0.1645   22.3040
IE(l)         619.88    296.75    453.48    323.14 4545.5137
EA(l)         -14.57   -130.71      0.00    -78.96    -78.96    116.14      0.00
              728.98    728.98    0.0000    0.0000      0.00
Eneg(l)       374.52
Alpha(l)      0.5079    0.2199    0.3200    0.2880    0.0039

> <SHAPE HYBRIDS>
   17.149731    0.758205    2.372188    2.819117    1.433087    0.727797
    0.508745    0.292097    0.226677    0.305673    0.269804    0.172289
    0.161896    0.120460    0.119379    0.119210

> <MEP HYBRIDS>
    9.817541   22.282494   19.493439   10.802453   15.599513    9.644114
    9.328505    9.043303    5.212333    5.423945    3.875901    2.511823
    2.164610    1.670037    1.775190    1.246434    1.056392    1.041756
    0.788945    0.789929    0.769165

> <IE(L) HYBRIDS>
   1603.1702    117.1812     55.0213    105.9051     78.2356     63.2944
     57.6316     48.3906     49.5735     25.8831     30.0562     36.2783
     27.2533     18.8712     18.6270     19.8907     13.0556     12.2918
      9.0996     12.0098      9.9035

> <EA(L) HYBRIDS>
    275.2550     40.3488     32.5206     40.5329     24.9499     29.6848
     20.4966     15.1294     11.8784      7.9326     13.4344      9.4401
      6.5621      9.4355      7.3355      5.7565      5.8603      4.9400
      4.9109      3.7095      3.6577

> <ALPHA(L) HYBRIDS>
  1.13557468  0.11981383  0.07777534  0.08401842  0.06988364  0.05930495
  0.04154799  0.02667674  0.02128660  0.01758190  0.01853198  0.01376222
  0.01240552  0.00931269  0.00971530  0.00903705  0.00768420  0.00754081
  0.00677330  0.00651474  0.00527644

> <ATOMIC SURFACE AREAS>
  0.0000  0.0000  2.0784  2.8975  0.8923  2.4316  3.0345  2.2411  0.4167  0.0000
  3.3295  5.8852  2.5047 27.7769  3.3763  7.8839  0.0000  3.4805 33.8740  3.3881
  8.0718 27.7070 17.8514 26.3454 26.2711 25.7797 30.7585 30.7881 40.4332 30.9985
 30.4492

> <ATOMIC SURFACE MEP MAXIMA>
    0.00    0.00  -13.14   -9.28    5.99    1.59  -11.79    0.03  -26.46    0.00
    6.89    2.07    0.11   18.79    0.69    6.03    0.00    5.06   32.60    0.91
  -16.34    6.32   -0.94    8.43   16.05   15.71    8.06    9.37   -2.41   11.60
    9.26

> <ATOMIC SURFACE MEP MINIMA>
    0.00    0.00  -32.06  -43.18    1.78   -6.35  -32.54  -13.74  -32.51    0.00
    0.11   -9.96  -12.04  -35.19  -10.64  -28.14    0.00   -2.67  -15.47  -10.74
  -35.03  -25.48  -14.42  -16.43  -33.10    2.34  -18.31   -2.84  -40.61  -11.89
   -2.78

> <ATOMIC SURFACE IE(L) MAXIMA>
    0.00    0.00  583.23  550.43  579.97  594.47  610.74  601.99  558.87    0.00
  593.24  592.55  580.34  470.27  599.87  619.88    0.00  598.26  447.52  602.26
  486.11  583.62  559.44  566.05  615.85  557.30  515.30  521.69  597.19  528.25
  522.91

> <ATOMIC SURFACE IE(L) MINIMA>
    0.00    0.00  509.13  428.60  505.54  505.58  418.85  507.81  525.97    0.00
  508.97  423.40  498.09  296.75  510.42  464.16    0.00  512.76  300.62  507.90
  391.90  376.38  358.46  415.36  452.69  425.01  353.60  414.66  439.35  364.34
  415.21

> <ATOMIC SURFACE EA(L) MAXIMA>
    0.00    0.00  -18.14  -60.25  -61.30  -41.87  -14.57  -53.88  -68.80    0.00
  -46.75  -18.43  -46.46  -26.43  -53.41  -39.60    0.00  -33.92  -24.35  -50.51
 -113.23  -61.17  -60.10  -60.49  -63.63  -58.37  -65.65  -64.59  -82.76  -53.93
  -64.92

> <ATOMIC SURFACE EA(L) MINIMA>
    0.00    0.00  -85.93 -107.91  -89.63  -89.19  -86.46  -85.28  -89.13    0.00
  -85.59  -87.77  -77.94  -92.73  -84.67 -130.30    0.00  -85.40  -87.49  -85.49
 -130.71  -97.85  -89.88  -96.56 -112.76  -88.81  -94.82  -94.34 -120.95  -87.29
  -93.64

> <ATOMIC SURFACE MEAN POL>
  0.0000  0.0000  0.3179  0.2922  0.3139  0.3214  0.3417  0.3078  0.2986  0.0000
  0.3171  0.3478  0.3094  0.4409  0.3061  0.2777  0.0000  0.3194  0.4543  0.3072
  0.2430  0.3028  0.3183  0.2989  0.2623  0.2990  0.3069  0.2933  0.2728  0.2986
  0.2972

$$$$
